# CIF file generated by openbabel 2.3.2, see http://openbabel.sf.net
data_I
_chemical_name_common '../proteins/pdb/1HX5.pdb'
_cell_length_a 77.5
_cell_length_b 162.5
_cell_length_c 125.6
_cell_angle_alpha 90
_cell_angle_beta 90
_cell_angle_gamma 90
_space_group_name_H-M_alt 'C 2 2 21'
_space_group_name_Hall 'C 2c 2'
loop_
    _symmetry_equiv_pos_as_xyz
    'x,y,z'
    '-x,-y,1/2+z'
    '-x,y,1/2-z'
    'x,-y,-z'
    '1/2+x,1/2+y,z'
    '1/2-x,1/2-y,1/2+z'
    '1/2-x,1/2+y,1/2-z'
    '1/2+x,1/2-y,-z'
loop_
    _atom_site_type_symbol
    _atom_site_label
    _atom_site_Cartn_x
    _atom_site_Cartn_y
    _atom_site_Cartn_z
      N    N1    27.77400   24.83300   13.88900
      C    C2    28.08200   26.29900   14.15500
      C    C3    28.62800   27.02000   12.93600
      O    O4    29.72500   26.74000   12.53100
      C    C5    29.16600   26.52100   15.31900
      C    C6    28.68500   25.97700   16.68100
      C    C7    29.46300   28.04800   15.46100
      C    C8    29.74100   25.49500   17.55400
      N    N9    27.88800   27.95700   12.37000
      C    C10    28.30700   28.70700   11.19700
      C    C11    28.56900   30.17800   11.51900
      O    O12    27.63500   30.92700   11.65900
      C    C13    27.24200   28.66300   10.12800
      C    C14    27.02100   27.31700    9.59500
      C    C15    25.90600   27.34000    8.54900
      C    C16    25.71700   25.92100    7.94900
      N    N17    25.37200   25.88000    6.46600
      N    N18    29.83200   30.61800   11.60500
      C    C19    30.20300   31.99100   11.90100
      C    C20    29.51700   32.89000   10.96000
      O    O21    29.58200   32.67900    9.75300
      C    C22    31.67100   31.99600   11.62600
      C    C23    32.06000   30.61900   11.99900
      C    C24    31.03500   29.84800   11.29100
      N    N25    28.86900   33.90700   11.50100
      C    C26    28.14300   34.83900   10.66100
      C    C27    29.16100   35.79100   10.06200
      O    O28    30.22400   35.94200   10.59900
      C    C29    27.01200   35.54800   11.44300
      C    C30    25.58900   35.07300   11.08400
      C    C31    25.52800   33.61100   11.11900
      C    C32    24.58900   35.57600   12.02600
      N    N33    28.80800   36.35500    8.90500
      C    C34    29.64800   37.26600    8.12900
      C    C35    30.84300   37.84000    8.81300
      O    O36    30.64600   38.63900    9.72700
      C    C37    28.81600   38.44700    7.63000
      C    C38    28.21700   39.30300    8.72600
      C    C39    27.94600   40.71300    8.26200
      O    O40    27.23500   40.88500    7.24600
      O    O41    28.44800   41.65600    8.91300
      N    N42    32.05900   37.48600    8.36400
      C    C43    33.31500   38.04100    8.95700
      C    C44    34.02900   37.29200   10.14100
      O    O45    35.23600   37.38000   10.29100
      C    C46    33.02400   39.49000    9.34500
      C    C47    34.20500   40.20500    9.88900
      O    O48    35.30100   39.94400    9.41400
      O    O49    34.04000   41.05000   10.79000
      N    N50    33.26800   36.54200   10.93200
      C    C51    33.77300   35.77700   12.05200
      C    C52    34.31200   34.48700   11.52700
      O    O53    33.87300   34.02400   10.49300
      C    C54    32.62700   35.35300   12.95400
      C    C55    31.68400   36.40300   13.44600
      C    C56    32.43600   37.53200   14.03900
      C    C57    31.64700   38.21900   15.07100
      N    N58    30.57700   38.91800   14.40500
      N    N59    35.22500   33.87500   12.26800
      C    C60    35.72500   32.56600   11.89500
      C    C61    35.72400   31.81900   13.22300
      O    O62    35.80400   32.42500   14.28800
      C    C63    37.09800   32.59100   11.26400
      C    C64    38.14900   32.42500   12.32800
      C    C65    37.26700   33.84700   10.47000
      C    C66    39.50300   32.50800   11.82300
      N    N67    35.55000   30.51000   13.13500
      C    C68    35.47700   29.60800   14.28300
      C    C69    36.76500   28.88900   14.29600
      O    O70    36.97300   28.11100   13.41300
      C    C71    34.37300   28.56100   14.07500
      C    C72    34.07300   27.56000   15.17300
      C    C73    33.34200   28.20200   16.34900
      C    C74    33.23000   26.50600   14.52500
      N    N75    37.58100   29.13700   15.32700
      C    C76    38.89300   28.51300   15.46300
      C    C77    38.77200   27.42800   16.51800
      O    O78    37.90100   27.53900   17.37700
      C    C79    39.85600   29.55500   15.92000
      C    C80    41.11500   28.97600   16.29400
      C    C81    40.09300   30.44000   14.81900
      N    N82    39.57100   26.35600   16.41000
      C    C83    39.58500   25.30500   17.42200
      C    C84    40.89900   25.54700   18.19000
      O    O85    41.98000   25.50800   17.61400
      C    C86    39.60400   23.95400   16.77100
      C    C87    39.63000   22.84200   17.75900
      C    C88    39.43900   21.47700   17.10200
      O    O89    39.20600   20.48200   17.79100
      N    N90    39.52200   21.42600   15.77200
      N    N91    40.78400   25.84300   19.48100
      C    C92    41.91000   26.15500   20.32200
      C    C93    42.80300   24.95100   20.56700
      O    O94    44.04400   25.07900   20.57900
      C    C95    41.38800   26.71000   21.61100
      N    N96    54.83500   27.13800   24.96700
      C    C97    55.07500   26.50200   23.65300
      C    C98    53.84300   25.91300   22.91700
      O    O99    52.88600   25.38600   23.52300
      C    C100    56.19100   25.38800   23.70800
      O    O101    57.41800   25.95900   24.17300
      C    C102    56.47400   24.82300   22.31700
      N    N103    53.93600   25.98900   21.58600
      C    C104    52.91300   25.56800   20.63000
      C    C105    53.33600   24.40300   19.75800
      O    O106    54.48900   24.33800   19.32100
      C    C107    52.59900   26.68400   19.66800
      O    O108    51.72900   27.63600   20.28400
      C    C109    51.91800   26.13300   18.46600
      N    N110    52.37300   23.51700   19.47100
      C    C111    52.56100   22.28100   18.63600
      C    C112    53.14700   22.46400   17.24000
      O    O113    53.40800   21.49500   16.53200
      C    C114    51.23300   21.48900   18.51200
      N    N115    53.33500   23.72300   16.87800
      C    C116    53.91500   24.13400   15.59300
      C    C117    55.45400   24.24300   15.71900
      O    O118    56.18000   24.03700   14.75300
      C    C119    53.32100   25.49900   15.19600
      O    O120    53.48800   25.80400   13.82800
      N    N121    55.93200   24.56900   16.91900
      C    C122    57.35100   24.71800   17.17800
      C    C123    57.66100   26.17800   17.47100
      O    O124    58.78900   26.62100   17.30000
      N    N125    56.66200   26.92100   17.94200
      C    C126    56.77200   28.36200   18.22200
      C    C127    56.46300   28.67200   19.68600
      O    O128    55.57100   28.06400   20.27500
      C    C129    55.78700   29.15400   17.32700
      C    C130    55.89300   29.22200   15.78800
      C    C131    54.58300   29.70100   15.20300
      C    C132    57.03300   30.16000   15.37200
      N    N133    57.14500   29.66400   20.24700
      C    C134    56.98200   30.04400   21.66100
      C    C135    56.20200   31.33600   21.73100
      O    O136    56.64800   32.31200   21.15400
      C    C137    58.36800   30.28100   22.32000
      C    C138    58.22200   30.60500   23.77800
      C    C139    59.24400   29.04300   22.12400
      N    N140    55.05800   31.36300   22.42700
      C    C141    54.28200   32.61400   22.48000
      C    C142    54.19000   33.28100   23.82700
      O    O143    53.34600   32.96000   24.64500
      C    C144    52.80300   32.47800   21.93100
      C    C145    52.79400   32.15500   20.42600
      C    C146    52.06500   33.82200   22.12100
      C    C147    51.45100   32.35900   19.72500
      N    N148    55.04700   34.26900   24.04800
      C    C149    55.09800   35.01800   25.30200
      C    C150    53.79100   35.68400   25.71600
      O    O151    53.68500   36.24300   26.82800
      C    C152    56.22600   36.02200   25.05400
      C    C153    57.13600   35.24200   24.20800
      C    C154    56.19600   34.60700   23.20200
      N    N155    48.00600   35.50700   22.69900
      C    C156    48.23700   35.02700   21.33900
      C    C157    48.32100   33.55300   21.41500
      O    O158    49.27900   33.00400   21.95000
      C    C159    49.59000   35.60900   20.96300
      C    C160    49.66600   36.82300   21.75600
      C    C161    49.12300   36.36500   23.11100
      N    N162    47.30900   32.90800   20.86700
      C    C163    47.23100   31.47000   20.84200
      C    C164    47.36200   31.02300   19.34500
      O    O165    47.27300   31.85900   18.44400
      C    C166    45.87400   31.13600   21.38300
      C    C167    45.79400   29.94600   22.19400
      C    C168    44.36500   29.59300   22.36300
      O    O169    43.62200   30.36800   22.94800
      N    N170    43.94200   28.44300   21.82300
      N    N171    47.63500   29.74700   19.07800
      C    C172    47.69100   29.25300   17.71300
      C    C173    46.51400   28.28200   17.62200
      O    O174    45.97100   27.87200   18.64700
      C    C175    48.98300   28.52600   17.46100
      C    C176    49.00700   27.84800   16.11500
      C    C177    50.29700   27.07000   15.84800
      O    O178    51.40100   27.62000   16.06000
      O    O179    50.20500   25.90200   15.41500
      N    N180    46.09100   27.92300   16.41900
      C    C181    44.96000   27.01600   16.34900
      C    C182    44.58400   26.72100   14.92000
      O    O183    45.25200   27.22700   13.99800
      N    N184    43.49900   25.94000   14.75800
      C    C185    43.03700   25.53100   13.44400
      C    C186    41.69800   26.13000   13.07000
      O    O187    40.74300   26.08100   13.84100
      C    C188    42.94600   23.95400   13.35700
      O    O189    44.25300   23.36100   13.32400
      C    C190    42.20100   23.52300   12.10000
      N    N191    41.65100   26.73800   11.89700
      C    C192    40.40700   27.27900   11.35500
      C    C193    39.44200   26.12400   10.96600
      O    O194    39.64700   25.40800   10.03300
      C    C195    40.66300   28.20500   10.12600
      C    C196    39.41900   28.57900    9.46200
      C    C197    41.35500   29.42800   10.58800
      N    N198    38.38900   25.96100   11.74500
      C    C199    37.35100   24.97500   11.56200
      C    C200    36.11500   25.48300   10.72400
      O    O201    35.43900   24.70900   10.08900
      C    C202    36.89500   24.58000   12.94600
      C    C203    35.66800   23.76300   12.86100
      C    C204    37.97800   23.84800   13.62400
      N    N205    35.82500   26.77700   10.75700
      C    C206    34.68800   27.33500   10.05800
      C    C207    34.99000   28.76900    9.69900
      O    O208    35.69200   29.43600   10.41200
      C    C209    33.53800   27.28000   10.95900
      N    N210    34.44900   29.28100    8.62400
      C    C211    34.73400   30.64200    8.22200
      C    C212    33.45500   31.27400    7.73600
      O    O213    32.66800   30.54400    7.14700
      C    C214    35.66400   30.59200    7.10400
      C    C215    35.39300   31.68000    6.16700
      C    C216    37.02000   30.73800    7.58300
      N    N217    33.20600   32.57100    7.93000
      C    C218    31.96200   33.15300    7.46900
      C    C219    32.02200   33.74400    6.04700
      O    O220    33.06700   33.65900    5.38800
      N    N221    30.90900   34.30700    5.52000
      C    C222    30.79200   34.92400    4.19200
      C    C223    31.65100   36.20000    4.04700
      O    O224    32.24800   36.42200    2.99700
      C    C225    29.31600   35.29000    4.12200
      C    C226    28.67000   34.28900    4.93000
      C    C227    29.57000   34.16400    6.12500
      N    N228    31.65900   37.04400    5.08900
      C    C229    32.43300   38.25200    5.07400
      C    C230    31.53400   39.47000    5.14500
      O    O231    30.33100   39.38000    4.96800
      N    N232    32.15400   40.62700    5.39100
      C    C233    31.47900   41.90400    5.50700
      C    C234    31.00900   42.35900    4.16700
      O    O235    31.74900   42.36700    3.19600
      C    C236    32.45200   42.97200    6.04600
      C    C237    33.33100   42.53200    7.22000
      C    C238    34.22100   43.64700    7.74400
      N    N239    33.43400   44.81900    8.10700
      C    C240    32.40900   44.81200    8.96600
      N    N241    32.02200   43.70000    9.57700
      N    N242    31.74300   45.94900    9.18100
      N    N243    29.75900   42.72700    4.08800
      C    C244    29.28000   43.29400    2.86000
      C    C245    30.05900   44.58200    2.55700
      O    O246    30.56100   45.28100    3.46500
      C    C247    27.86300   43.71200    3.02100
      C    C248    27.02000   42.65200    2.78000
      C    C249    26.45600   41.74500    3.71400
      C    C250    26.67600   42.16300    1.48000
      N    N251    25.79300   40.71100    3.02100
      C    C252    25.91900   40.94100    1.66100
      C    C253    26.93500   42.62700    0.17400
      C    C254    25.43300   40.20600    0.58200
      C    C255    26.46700   41.92800   -0.85800
      C    C256    25.71600   40.71300   -0.66300
      N    N257    30.15500   44.93600    1.28100
      C    C258    30.77700   46.20600    0.91800
      C    C259    29.85100   47.28300    1.67000
      O    O260    28.70900   46.98200    2.11500
      C    C261    30.74500   46.38300   -0.68500
      N    N262    30.34400   48.51300    1.86400
      C    C263    29.51100   49.52200    2.51000
      C    C264    28.29800   49.71900    1.62900
      O    O265    27.23800   50.05500    2.14400
      C    C266    30.25800   50.85800    2.64500
      C    C267    31.18400   50.97600    3.87600
      C    C268    30.53800   50.49400    5.19100
      O    O269    29.28800   50.42100    5.27600
      O    O270    31.29400   50.19400    6.14700
      N    N271    28.49500   49.52300    0.30200
      C    C272    27.47200   49.64700   -0.77400
      C    C273    26.49700   48.44500   -0.82600
      O    O274    25.38500   48.55300   -1.38900
      C    C275    28.17700   49.85000   -2.17500
      N    N276    26.92300   47.33400   -0.21000
      C    C277    26.13000   46.11000   -0.14700
      C    C278    26.18000   45.25900   -1.41900
      O    O279    25.49300   44.21200   -1.50700
      N    N280    26.99400   45.72100   -2.39700
      C    C281    27.15800   45.05800   -3.71500
      C    C282    27.64500   43.64100   -3.56600
      O    O283    27.04200   42.69600   -4.04000
      C    C284    28.12100   45.84300   -4.67200
      C    C285    29.53400   46.24500   -4.14000
      C    C286    30.48800   46.81300   -5.24700
      O    O287    30.12800   47.82500   -5.92300
      O    O288    31.60200   46.24300   -5.43400
      N    N289    28.73700   43.48900   -2.86900
      C    C290    29.27300   42.17700   -2.67300
      C    C291    29.91200   42.11900   -1.29000
      O    O292    30.00200   43.13500   -0.59400
      C    C293    30.31000   41.90900   -3.75900
      C    C294    31.39800   42.99300   -3.90800
      C    C295    32.29500   42.64000   -5.09400
      C    C296    33.39800   43.64700   -5.37900
      N    N297    34.01700   43.23400   -6.67900
      N    N298    30.33400   40.91900   -0.89300
      C    C299    31.02100   40.73100    0.37300
      C    C300    32.49800   40.46000    0.07200
      O    O301    32.90000   39.84300   -0.97300
      C    C302    30.50700   39.52600    1.13000
      C    C303    29.08000   39.44000    1.29800
      C    C304    28.85000   38.02500    1.44500
      N    N305    27.56200   37.77700    2.03900
      C    C306    27.28000   38.04300    3.29600
      N    N307    28.21100   38.56000    4.06000
      N    N308    26.08600   37.76100    3.76500
      N    N309    33.27800   40.93000    1.04200
      C    C310    34.72100   40.79300    1.04500
      C    C311    35.13800   39.43300    1.60800
      O    O312    34.86600   39.10400    2.76200
      C    C313    35.35900   41.88600    1.92000
      C    C314    34.72000   43.22800    1.59900
      C    C315    36.87900   41.92700    1.68300
      C    C316    35.35100   44.31500    2.32800
      N    N317    35.83600   38.63800    0.80500
      C    C318    36.25500   37.32200    1.30100
      C    C319    37.41700   37.34500    2.31600
      O    O320    38.31100   38.21400    2.31100
      C    C321    36.60700   36.55300    0.02500
      C    C322    36.02500   37.39100   -1.09700
      C    C323    36.16700   38.80500   -0.60900
      N    N324    37.41300   36.35000    3.17300
      C    C325    38.42100   36.24400    4.21000
      C    C326    39.59400   35.47200    3.61400
      O    O327    39.37400   34.67200    2.71300
      C    C328    37.84000   35.51900    5.43900
      C    C329    36.49900   35.99100    6.00100
      C    C330    36.28500   35.24000    7.20900
      C    C331    36.45900   37.45300    6.28300
      N    N332    40.82200   35.70200    4.11100
      C    C333    41.99300   35.01900    3.56300
      C    C334    42.42300   33.79700    4.32800
      O    O335    43.55600   33.40300    4.28100
      C    C336    43.19700   35.96900    3.43400
      C    C337    42.86800   37.27600    2.70600
      O    O338    42.24700   37.22300    1.61100
      O    O339    43.25600   38.35000    3.24000
      N    N340    41.53700   33.20800    5.06900
      C    C341    41.90300   31.98200    5.77200
      C    C342    40.76600   31.08300    5.31200
      O    O343    39.72100   31.58600    4.81100
      C    C344    41.90100   32.06000    7.39800
      C    C345    42.98000   32.97300    7.93500
      C    C346    40.56800   32.52100    7.90100
      N    N347    40.96400   29.76600    5.45000
      C    C348    39.96000   28.76800    5.08700
      C    C349    40.09600   27.64100    6.05700
      O    O350    41.08900   27.57200    6.79200
      C    C351    40.18900   28.25600    3.71000
      N    N352    39.09800   26.74800    6.05400
      C    C353    39.08200   25.61400    6.97000
      C    C354    40.42800   24.93200    6.90500
      O    O355    41.05900   24.94500    5.86400
      C    C356    37.97900   24.62200    6.59000
      C    C357    36.70000   25.28400    6.14000
      C    C358    35.48400   24.34100    6.17700
      O    O359    35.70200   23.09000    6.29000
      O    O360    34.32000   24.86100    6.08700
      N    N361    40.87800   24.38700    8.03100
      C    C362    42.10900   23.65700    8.10600
      C    C363    43.29400   24.54300    8.26700
      O    O364    44.36500   24.11600    8.65400
      N    N365    43.14600   25.80800    7.95100
      C    C366    44.31300   26.64900    8.12300
      C    C367    44.77100   26.71000    9.58100
      O    O368    43.97200   26.92600   10.50600
      C    C369    44.00300   28.03500    7.66700
      C    C370    44.26700   28.23300    6.25700
      O    O371    45.31400   27.73200    5.78100
      O    O372    43.43100   28.89900    5.64600
      N    N373    46.05200   26.51200    9.82600
      C    C374    46.47600   26.65700   11.20100
      C    C375    46.88500   28.12600   11.31800
      O    O376    47.70100   28.63500   10.55900
      C    C377    47.56400   25.61700   11.56000
      O    O378    48.22200   26.03000   12.74400
      C    C379    48.55900   25.40500   10.45600
      N    N380    46.24600   28.83200   12.23000
      C    C381    46.47300   30.27800   12.40300
      C    C382    46.87300   30.74800   13.81700
      O    O383    46.55000   30.09100   14.81100
      C    C384    45.19500   31.14500   12.03000
      C    C385    44.83600   31.03500   10.58300
      C    C386    44.02900   30.74400   12.93200
      N    N387    47.55200   31.91400   13.84400
      C    C388    48.02200   32.61400   15.05200
      C    C389    47.12100   33.81000   15.13400
      O    O390    47.04900   34.60700   14.17300
      C    C391    49.45600   33.18500   14.91800
      C    C392    50.41100   32.04000   14.67500
      C    C393    49.89100   33.83400   16.18400
      C    C394    51.80400   32.40300   14.24400
      N    N395    46.44900   33.93600   16.28600
      C    C396    45.50700   35.01500   16.55700
      C    C397    45.56000   35.47200   18.01000
      O    O398    46.20600   34.86500   18.84600
      C    C399    44.10900   34.51300   16.25800
      C    C400    43.78400   33.33000   17.08700
      C    C401    43.24000   33.45100   18.35300
      C    C402    44.02600   32.07900   16.60600
      C    C403    42.94100   32.33200   19.11100
      C    C404    43.73000   30.95800   17.35500
      C    C405    43.18900   31.08100   18.60300
      O    O406    42.89700   29.92400   19.29000
      N    N407    44.86800   36.56200   18.29600
      C    C408    44.79800   37.05800   19.64300
      C    C409    43.37900   36.66000   20.11300
      O    O410    42.47000   36.49900   19.28300
      C    C411    45.00200   38.57900   19.65200
      O    O412    43.95500   39.23300   18.98000
      N    N413    43.16900   36.49400   21.42700
      C    C414    41.83700   36.11800   21.90200
      C    C415    40.94700   37.29000   22.26800
      O    O416    39.86900   37.04600   22.72800
      C    C417    41.91600   35.20400   23.12100
      C    C418    43.04500   34.23600   23.05100
      C    C419    43.34700   33.55900   24.36900
      C    C420    42.42500   32.40800   24.59500
      N    N421    42.54900   31.90400   25.98400
      N    N422    41.37600   38.54300   22.11700
      C    C423    40.52900   39.69200   22.44200
      C    C424    39.13700   39.62700   21.79000
      O    O425    39.03200   39.31500   20.62200
      C    C426    41.19000   40.97200   21.96700
      C    C427    42.46000   41.35600   22.67800
      C    C428    43.72400   41.14200   22.08900
      C    C429    42.40900   42.03400   23.90700
      C    C430    44.93800   41.61200   22.71100
      C    C431    43.60300   42.51400   24.55500
      C    C432    44.88200   42.30300   23.95900
      O    O433    46.06200   42.74900   24.61200
      N    N434    38.07100   39.90900   22.54400
      C    C435    36.72200   39.92100   21.98400
      C    C436    36.22400   38.56400   21.59200
      O    O437    35.11200   38.40900   21.10600
      N    N438    37.07400   37.57500   21.80200
      C    C439    36.77900   36.18100   21.49000
      C    C440    35.62200   35.71500   22.31400
      O    O441    35.37200   36.28200   23.37100
      N    N442    34.91800   34.68800   21.84600
      C    C443    33.74600   34.17300   22.50300
      C    C444    33.95700   32.71600   22.47900
      O    O445    33.68100   32.06400   21.45600
      C    C446    32.49200   34.48100   21.71600
      O    O447    32.28100   35.89900   21.65100
      C    C448    31.30700   33.85500   22.38600
      N    N449    34.47200   32.20800   23.61100
      C    C450    34.78800   30.80900   23.83700
      C    C451    33.51800   30.00700   24.13700
      O    O452    32.64100   30.47000   24.90000
      C    C453    35.76000   30.65500   24.99100
      C    C454    36.07300   29.21700   25.26600
      C    C455    36.77000   29.04500   26.57200
      O    O456    37.58800   29.94100   26.90500
      O    O457    36.49900   28.02000   27.24300
      N    N458    33.45000   28.83200   23.48700
      C    C459    32.35500   27.88500   23.60300
      C    C460    32.95200   26.47300   23.44400
      O    O461    33.76800   26.23400   22.57600
      C    C462    31.27900   28.13400   22.53300
      C    C463    31.51100   27.28600   21.31000
      C    C464    31.32500   29.55500   22.06000
      C    C465    30.40200   27.43700   20.34700
      N    N466    32.54200   25.53700   24.29100
      C    C467    33.05400   24.16800   24.26300
      C    C468    31.97200   23.28300   23.67500
      O    O469    30.79300   23.55800   23.80300
      C    C470    33.39700   23.69300   25.68600
      C    C471    34.47300   24.50600   26.42100
      C    C472    34.40600   24.24200   27.93800
      C    C473    35.77900   23.94800   28.56500
      N    N474    36.56300   25.16200   28.94000
      N    N475    32.38300   22.21000   23.02900
      C    C476    31.44700   21.28800   22.41700
      C    C477    32.04200   19.89400   22.23000
      O    O478    32.95300   19.70200   21.41800
      C    C479    31.03300   21.81600   21.06700
      C    C480    30.24300   20.81600   20.29300
      C    C481    28.92900   20.58100   20.60900
      C    C482    30.81800   20.09800   19.24600
      C    C483    28.19600   19.67600   19.92400
      C    C484    30.09800   19.17800   18.54600
      C    C485    28.77900   18.96600   18.89100
      O    O486    28.04100   18.00500   18.23100
      N    N487    31.49100   18.92000   22.94900
      C    C488    31.96800   17.53600   22.89400
      C    C489    33.47300   17.41100   23.18300
      O    O490    34.20800   16.72700   22.44600
      C    C491    31.65900   16.91000   21.52400
      C    C492    30.15800   16.60600   21.31600
      O    O493    29.69800   16.68700   20.16800
      N    N494    29.37600   16.23800   22.38200
      N    N495    33.91500   18.07800   24.25500
      C    C496    35.32600   18.02100   24.64400
      C    C497    36.32100   19.01200   24.02400
      O    O498    37.44100   19.24400   24.56100
      N    N499    35.91300   19.59400   22.88900
      C    C500    36.74300   20.53500   22.17700
      C    C501    36.37200   21.90200   22.58800
      O    O502    35.23000   22.17000   22.90500
      C    C503    36.58300   20.39200   20.66700
      C    C504    37.39900   19.23300   20.09200
      C    C505    38.81400   19.19200   20.64100
      O    O506    39.54600   20.20900   20.57700
      O    O507    39.19400   18.12700   21.14600
      N    N508    37.37400   22.76100   22.62200
      C    C509    37.20700   24.16300   22.99200
      C    C510    37.33400   25.06000   21.77200
      O    O511    38.36800   25.14200   21.14500
      C    C512    38.25100   24.55900   24.00900
      C    C513    37.94500   25.84700   24.64700
      C    C514    39.19200   26.47500   25.18000
      O    O515    39.78100   27.32300   24.45300
      O    O516    39.58400   26.09600   26.31600
      N    N517    36.26600   25.75500   21.46700
      C    C518    36.23200   26.60200   20.31900
      C    C519    36.17700   28.09200   20.62700
      O    O520    35.84200   28.52900   21.70000
      C    C521    35.04400   26.19100   19.46300
      C    C522    35.20800   24.85000   18.84000
      C    C523    34.36700   23.81100   19.16400
      C    C524    36.21100   24.62500   17.91900
      C    C525    34.51700   22.56000   18.59100
      C    C526    36.37300   23.40500   17.33200
      C    C527    35.53100   22.34700   17.65900
      O    O528    35.74600   21.09400   17.04500
      N    N529    36.51100   28.87900   19.63400
      C    C530    36.50100   30.30200   19.74500
      C    C531    35.90100   30.94800   18.50800
      O    O532    36.29000   30.61900   17.38600
      C    C533    37.91600   30.73200   19.91200
      C    C534    38.22000   30.66700   21.37000
      C    C535    39.70900   30.56700   21.51000
      C    C536    37.64100   31.92900   22.04300
      N    N537    34.95900   31.85800   18.68700
      C    C538    34.38400   32.50000   17.52500
      C    C539    35.04300   33.84800   17.56000
      O    O540    34.66600   34.66000   18.35800
      C    C541    32.86600   32.74700   17.64900
      C    C542    32.12300   31.44800   17.84800
      C    C543    32.35900   33.46200   16.44500
      C    C544    30.69800   31.58400   18.08000
      N    N545    36.03100   34.14400   16.71200
      C    C546    36.66900   35.46800   16.76300
      C    C547    36.53900   36.08000   15.39600
      O    O548    36.33500   35.39400   14.45100
      C    C549    38.16400   35.41900   17.24800
      C    C550    39.01600   34.33000   16.62600
      C    C551    40.33000   34.74700   16.39100
      C    C552    39.13100   33.24200   17.52600
      N    N553    36.55600   37.39900   15.37700
      C    C554    36.48600   38.18800   14.18600
      C    C555    37.76600   38.06800   13.41600
      O    O556    38.84000   37.94700   13.96400
      C    C557    36.32600   39.64900   14.51100
      O    O558    36.95700   40.40500   13.48500
      N    N559    37.65300   38.15700   12.10700
      C    C560    38.78400   37.99100   11.24500
      C    C561    39.89700   38.92800   11.65400
      O    O562    41.07300   38.55200   11.53200
      C    C563    38.36400   38.23900    9.83700
      N    N564    39.53600   40.12100   12.16600
      C    C565    40.54700   41.12500   12.55600
      C    C566    41.58900   40.62100   13.54700
      O    O567    42.67600   41.17100   13.65300
      C    C568    39.86600   42.40900   13.07000
      C    C569    39.20000   43.21800   11.93900
      C    C570    38.54300   44.50500   12.42300
      N    N571    37.73700   45.22300   11.40200
      C    C572    36.59600   44.79200   10.81300
      N    N573    36.04700   43.59400   11.08300
      N    N574    35.93100   45.60600    9.99000
      N    N575    41.24500   39.51700   14.20600
      C    C576    42.05300   38.86600   15.20500
      C    C577    43.02100   37.90800   14.68100
      O    O578    44.00000   37.68300   15.37300
      C    C579    41.19700   38.11600   16.17800
      C    C580    40.44300   39.01700   17.04800
      O    O581    41.11700   39.94000   17.54700
      O    O582    39.21600   38.81900   17.22800
      N    N583    42.77500   37.30500   13.48500
      C    C584    43.73800   36.33500   12.85900
      C    C585    44.86000   37.13500   12.24700
      O    O586    44.58300   37.95100   11.35700
      C    C587    43.10900   35.49400   11.74900
      C    C588    44.09400   34.45500   11.24600
      C    C589    41.87200   34.79700   12.31400
      N    N590    46.07300   36.93200   12.78400
      C    C591    47.28600   37.62400   12.38200
      C    C592    48.18100   36.97400   11.34000
      O    O593    48.82700   37.64600   10.57000
      C    C594    48.14700   37.85300   13.57200
      C    C595    47.51400   38.21000   14.87200
      C    C596    48.60400   38.19300   15.96000
      C    C597    46.90600   39.52200   14.70300
      N    N598    48.25600   35.66600   11.33500
      C    C599    49.08600   35.01700   10.34900
      C    C600    48.65600   33.56100   10.27500
      O    O601    47.92200   33.10200   11.16700
      C    C602    50.55200   35.11100   10.79100
      N    N603    49.09600   32.84800    9.22700
      C    C604    48.83700   31.38900    9.07800
      C    C605    50.24500   30.75900    9.06200
      O    O606    51.20300   31.40700    8.65900
      C    C607    48.09300   31.02700    7.75800
      C    C608    46.79500   31.72200    7.67800
      C    C609    48.84200   31.50400    6.61200
      N    N610    50.40400   29.54900    9.56200
      C    C611    51.71200   28.91200    9.52900
      C    C612    51.58500   27.67500    8.55100
      O    O613    50.46100   27.13300    8.54900
      C    C614    52.12600   28.52700   10.98100
      C    C615    52.17300   29.73600   11.85100
      C    C616    51.14900   27.63000   11.60200
