# CIF file generated by openbabel 2.3.2, see http://openbabel.sf.net
data_I
_chemical_name_common '../proteins/pdb/1U8R.pdb'
_cell_length_a 107.959
_cell_length_b 107.959
_cell_length_c 215.124
_cell_angle_alpha 90
_cell_angle_beta 90
_cell_angle_gamma 120
_space_group_name_H-M_alt 'P 31'
_space_group_name_Hall 'P 31'
loop_
    _symmetry_equiv_pos_as_xyz
    'x,y,z'
    '-y,x-y,1/3+z'
    '-x+y,-x,2/3+z'
loop_
    _atom_site_type_symbol
    _atom_site_label
    _atom_site_Cartn_x
    _atom_site_Cartn_y
    _atom_site_Cartn_z
      O    O1   -13.73300   99.61700    9.75500
      C    C2   -13.26700  100.37300    8.63400
      C    C3   -14.33900  101.27200    8.06200
      O    O4   -13.85000  101.77900    6.79600
      C    C5   -15.61700  100.51400    7.72200
      O    O6   -16.81300  101.27900    7.86500
      C    C7   -15.38300  100.05600    6.30000
      C    C8   -14.51700  101.15400    5.70600
      N    N9   -13.48700  100.55800    4.84500
      C    C10   -13.52400  100.79800    3.46200
      O    O11   -14.39500  101.54900    3.00900
      N    N12   -12.61100  100.19700    2.66100
      C    C13   -11.69300   99.38700    3.18700
      N    N14   -10.83000   98.80300    2.35700
      C    C15   -11.62000   99.13800    4.59200
      C    C16   -12.52300   99.74500    5.37800
      P    P17   -18.22800  100.53600    7.71400
      O    O18   -19.29400  101.37100    8.31100
      O    O19   -18.02900   99.13800    8.18200
      O    O20   -18.44200  100.48700    6.13900
      C    C21   -18.57800  101.69800    5.40700
      C    C22   -19.18400  101.43900    4.04800
      O    O23   -18.16000  100.93400    3.16200
      C    C24   -20.26100  100.35600    4.08600
      O    O25   -21.26500  100.60900    3.08500
      C    C26   -19.46300   99.08500    3.84300
      C    C27   -18.40600   99.57200    2.86300
      N    N28   -17.11900   98.85800    2.85600
      C    C29   -16.40900   98.77800    1.65200
      O    O30   -16.88400   99.33400    0.64400
      N    N31   -15.23100   98.09900    1.61600
      C    C32   -14.76300   97.51900    2.72300
      N    N33   -13.60600   96.86200    2.64900
      C    C34   -15.46200   97.58900    3.96100
      C    C35   -16.62600   98.26700    3.98500
      P    P36   -22.52900   99.62000    2.93800
      O    O37   -23.73300  100.45200    2.70400
      O    O38   -22.51400   98.62500    4.04700
      O    O39   -22.20700   98.84000    1.59600
      C    C40   -21.98300   99.57500    0.41800
      C    C41   -21.77500   98.65500   -0.75700
      O    O42   -20.46000   98.03600   -0.67000
      C    C43   -22.77600   97.49500   -0.76000
      O    O44   -23.02200   97.10200   -2.11700
      C    C45   -22.03600   96.42500    0.02600
      C    C46   -20.60700   96.64900   -0.45100
      N    N47   -19.48300   96.16000    0.36500
      C    C48   -18.32500   95.72500   -0.29700
      O    O49   -18.27200   95.81900   -1.53500
      N    N50   -17.29500   95.21700    0.42600
      C    C51   -17.38100   95.15300    1.75400
      N    N52   -16.33900   94.66200    2.42100
      C    C53   -18.53900   95.59800    2.45500
      C    C54   -19.55800   96.09600    1.72800
      P    P55   -24.34200   96.27600   -2.51000
      O    O56   -25.06800   97.01300   -3.56500
      O    O57   -25.04600   95.86700   -1.27500
      O    O58   -23.71400   95.00900   -3.21200
      C    C59   -22.37700   94.67100   -2.92900
      C    C60   -21.87400   93.65900   -3.92200
      O    O61   -20.55500   93.28600   -3.46700
      C    C62   -22.68700   92.36500   -3.94200
      O    O63   -22.61100   91.73800   -5.23700
      C    C64   -22.03200   91.55300   -2.83900
      C    C65   -20.57000   91.98400   -2.90800
      N    N66   -19.90200   92.06200   -1.60000
      C    C67   -18.59000   91.69100   -1.54500
      O    O68   -17.96200   91.34700   -2.52800
      N    N69   -18.03300   91.73600   -0.29500
      C    C70   -18.64900   92.11200    0.87900
      O    O71   -18.02000   92.08000    1.93700
      C    C72   -20.02900   92.51600    0.74200
      C    C73   -20.78100   92.95100    1.95800
      C    C74   -20.57800   92.47700   -0.47600
      P    P75   -23.71300   90.65000   -5.67500
      O    O76   -24.10000   90.85300   -7.09300
      O    O77   -24.75600   90.65300   -4.62000
      O    O78   -22.91000   89.28300   -5.63000
      C    C79   -21.95600   89.07100   -4.60800
      C    C80   -20.78500   88.28000   -5.13100
      O    O81   -19.67900   88.59600   -4.24800
      C    C82   -20.98900   86.77000   -5.02600
      O    O83   -20.34500   86.00000   -6.04300
      C    C84   -20.46900   86.45700   -3.64200
      C    C85   -19.37400   87.49400   -3.41500
      N    N86   -19.36500   87.96200   -2.03100
      C    C87   -20.38600   88.56200   -1.33900
      N    N88   -20.12200   88.71000   -0.07000
      C    C89   -18.83600   88.21500    0.07000
      C    C90   -18.01100   88.08900    1.22100
      O    O91   -18.25900   88.38700    2.39500
      N    N92   -16.77600   87.53900    0.90000
      C    C93   -16.38300   87.15200   -0.35800
      N    N94   -15.14400   86.64500   -0.47400
      N    N95   -17.14400   87.25500   -1.42700
      C    C96   -18.34600   87.78700   -1.14200
      P    P97   -20.38600   84.38600   -5.96200
      O    O98   -20.16100   83.83200   -7.32400
      O    O99   -21.59400   83.97300   -5.19800
      O    O100   -19.10400   84.05500   -5.08200
      C    C101   -17.86000   84.64000   -5.42400
      C    C102   -16.71900   83.82200   -4.87500
      O    O103   -16.52500   84.15000   -3.48600
      C    C104   -16.98600   82.32400   -4.90400
      O    O105   -15.73100   81.64700   -4.95700
      C    C106   -17.67200   82.09400   -3.57500
      C    C107   -16.93500   83.07200   -2.67300
      N    N108   -17.70700   83.62600   -1.55600
      C    C109   -17.14000   83.54000   -0.31700
      O    O110   -16.04800   83.03700   -0.13000
      N    N111   -17.90100   84.06300    0.69800
      C    C112   -19.14800   84.65000    0.58800
      O    O113   -19.72100   85.08300    1.58600
      C    C114   -19.68200   84.70400   -0.74100
      C    C115   -21.02900   85.31100   -0.93700
      C    C116   -18.94600   84.20200   -1.74200
      P    P117   -15.68400   80.04500   -5.02700
      O    O118   -14.61100   79.69400   -5.99700
      O    O119   -17.07000   79.54900   -5.23800
      O    O120   -15.20300   79.63400   -3.57000
      C    C121   -14.12100   80.32600   -2.97000
      C    C122   -13.62100   79.58400   -1.75500
      O    O123   -14.32900   80.03700   -0.57600
      C    C124   -13.88200   78.08200   -1.83700
      O    O125   -12.84800   77.38900   -1.11400
      C    C126   -15.26000   77.95300   -1.20300
      C    C127   -15.18800   79.00900   -0.10200
      N    N128   -16.44600   79.63100    0.36700
      C    C129   -16.55000   79.88300    1.71300
      O    O130   -15.68100   79.58700    2.51100
      N    N131   -17.71000   80.49400    2.09500
      C    C132   -18.76400   80.86600    1.28500
      O    O133   -19.74500   81.42200    1.77600
      C    C134   -18.60200   80.55500   -0.11900
      C    C135   -19.69900   80.91200   -1.07600
      C    C136   -17.46400   79.96000   -0.50100
      P    P137   -12.83700   75.77800   -1.05200
      O    O138   -11.41400   75.35800   -1.03200
      O    O139   -13.75800   75.24300   -2.09700
      O    O140   -13.44600   75.46600    0.38800
      C    C141   -12.95400   76.17500    1.51600
      C    C142   -13.43300   75.56200    2.80900
      O    O143   -14.65500   76.21000    3.23300
      C    C144   -13.78600   74.07800    2.69900
      O    O145   -13.50400   73.44600    3.95800
      C    C146   -15.27100   74.11200    2.35100
      C    C147   -15.74500   75.29900    3.17400
      N    N148   -16.95100   76.03600    2.78400
      C    C149   -17.55100   76.15500    1.55500
      N    N150   -18.61900   76.92500    1.56000
      C    C151   -18.73000   77.33500    2.88300
      C    C152   -19.65600   78.17500    3.55400
      N    N153   -20.69300   78.78000    2.96000
      N    N154   -19.47600   78.37300    4.87900
      C    C155   -18.44700   77.76800    5.48000
      N    N156   -17.52000   76.96300    4.96500
      C    C157   -17.71700   76.78700    3.64800
      P    P158   -13.65200   71.85500    4.12500
      O    O159   -12.32300   71.27300    4.39700
      O    O160   -14.46500   71.34600    2.98300
      O    O161   -14.48800   71.74100    5.46900
      C    C162   -15.41800   72.75900    5.76400
      C    C163   -16.20800   72.43300    7.00100
      O    O164   -17.35800   73.30800    6.98200
      C    C165   -16.77400   71.02400    6.99600
      O    O166   -17.00500   70.62300    8.35100
      C    C167   -18.07100   71.19700    6.23500
      C    C168   -18.52800   72.58100    6.65900
      N    N169   -19.25900   73.31900    5.63000
      C    C170   -19.11100   73.21700    4.26900
      N    N171   -19.95000   73.96900    3.60500
      C    C172   -20.68600   74.61600    4.58400
      C    C173   -21.74500   75.55000    4.47100
      O    O174   -22.26300   76.00200    3.44900
      N    N175   -22.20600   75.95700    5.72000
      C    C176   -21.71700   75.51400    6.92500
      N    N177   -22.29500   76.00700    8.03100
      N    N178   -20.73000   74.64000    7.04200
      C    C179   -20.26500   74.23600    5.84100
      P    P180   -17.44700   69.11300    8.67500
      O    O181   -16.59500   68.59500    9.78500
      O    O182   -17.53600   68.35400    7.39400
      O    O183   -18.93400   69.29200    9.19300
      C    C184   -19.74400   70.31200    8.66000
      C    C185   -20.81900   70.67600    9.64700
      O    O186   -21.50600   71.82700    9.10500
      C    C187   -21.86800   69.57800    9.77600
      O    O188   -22.49300   69.52900   11.06200
      C    C189   -22.84800   69.93500    8.68600
      C    C190   -22.78200   71.46100    8.64400
      N    N191   -22.91600   71.93400    7.26700
      C    C192   -23.70100   73.01800    7.02900
      O    O193   -24.13900   73.63600    7.99700
      N    N194   -23.97000   73.37500    5.74900
      C    C195   -23.44600   72.67900    4.74200
      N    N196   -23.75100   73.03700    3.50600
      C    C197   -22.58400   71.58500    4.96500
      C    C198   -22.33200   71.25700    6.23200
      P    P199   -23.71500   68.51000   11.30200
      O    O200   -23.65900   68.00900   12.69900
      O    O201   -23.70200   67.54500   10.17100
      O    O202   -24.99900   69.44500   11.15600
      C    C203   -24.99300   70.76200   11.69800
      C    C204   -26.40400   71.21800   11.96600
      O    O205   -26.86200   71.98100   10.82100
      C    C206   -27.34800   70.02900   12.07900
      O    O207   -28.44400   70.25500   12.96200
      C    C208   -27.80200   69.82500   10.65100
      C    C209   -27.82300   71.23600   10.07300
      N    N210   -27.39700   71.20300    8.66900
      C    C211   -26.24800   70.62500    8.21200
      N    N212   -26.13800   70.61800    6.91200
      C    C213   -27.27900   71.26200    6.47900
      C    C214   -27.74500   71.56900    5.19600
      N    N215   -27.09400   71.24300    4.07600
      N    N216   -28.91500   72.22800    5.09600
      C    C217   -29.56400   72.54700    6.22500
      N    N218   -29.22700   72.30600    7.49200
      C    C219   -28.05600   71.65100    7.55000
      P    P220   -29.50400   69.06500   13.24400
      O    O221   -29.94100   69.21600   14.66200
      O    O222   -28.97200   67.75600   12.77000
      O    O223   -30.73400   69.43000   12.30500
      C    C224   -31.33800   70.69800   12.41400
      C    C225   -32.58200   70.75900   11.57100
      O    O226   -32.20000   70.84900   10.17800
      C    C227   -33.38400   69.46300   11.68100
      O    O228   -34.77000   69.74800   11.48800
      C    C229   -32.81700   68.61800   10.55700
      C    C230   -32.57900   69.66900    9.49700
      N    N231   -31.58900   69.37800    8.45000
      C    C232   -31.91400   69.68800    7.09600
      O    O233   -32.99500   70.25200    6.83800
      N    N234   -31.03600   69.37600    6.12000
      C    C235   -29.87000   68.82200    6.43300
      N    N236   -29.03700   68.56400    5.44100
      C    C237   -29.50600   68.51500    7.78700
      C    C238   -30.38800   68.80800    8.75400
      P    P239   -35.85700   68.57000   11.57600
      O    O240   -36.78800   68.93100   12.67700
      O    O241   -35.20300   67.23800   11.57000
      O    O242   -36.62600   68.72600   10.19300
      C    C243   -37.06700   70.00600    9.77800
      C    C244   -37.63800   69.96200    8.38000
      O    O245   -36.58700   69.65400    7.43100
      C    C246   -38.67800   68.85900    8.19000
      O    O247   -39.65200   69.29400    7.22500
      C    C248   -37.83100   67.68400    7.72300
      C    C249   -36.80300   68.38400    6.85500
      N    N250   -35.50300   67.76100    6.61500
      C    C251   -34.60700   67.26400    7.52000
      N    N252   -33.49900   66.80700    6.97300
      C    C253   -33.68800   67.00700    5.61400
      C    C254   -32.87500   66.73500    4.49000
      N    N255   -31.67100   66.17500    4.57200
      N    N256   -33.34900   67.06100    3.26900
      C    C257   -34.55900   67.62000    3.19200
      N    N258   -35.42300   67.92600    4.17300
      C    C259   -34.91900   67.58800    5.37600
      P    P260   -41.11600   68.62800    7.19200
      O    O261   -42.13400   69.69800    6.97800
      O    O262   -41.22200   67.70000    8.35300
      O    O263   -41.04600   67.79100    5.86200
      C    C264   -39.78400   67.47200    5.38300
      C    C265   -39.85000   67.05100    3.94600
      O    O266   -38.51200   66.63500    3.61900
      C    C267   -40.73700   65.83500    3.72600
      O    O268   -41.13200   65.84900    2.35400
      C    C269   -39.79700   64.68300    4.03800
      C    C270   -38.46400   65.22600    3.53300
      N    N271   -37.25200   64.77200    4.20700
      C    C272   -37.02000   64.52500    5.54200
      N    N273   -35.82800   64.03900    5.76800
      C    C274   -35.24500   63.98900    4.51000
      C    C275   -33.97000   63.52900    4.09600
      O    O276   -33.06500   63.04300    4.78700
      N    N277   -33.80300   63.66500    2.71500
      C    C278   -34.75100   64.16700    1.85300
      N    N279   -34.43800   64.22300    0.56800
      N    N280   -35.93100   64.58300    2.22800
      C    C281   -36.11000   64.46400    3.55300
      P    P282   -42.44900   65.06900    1.89300
      O    O283   -43.21400   65.99000    0.99900
      O    O284   -43.09000   64.51600    3.12600
      O    O285   -41.88500   63.84600    1.03900
      C    C286   -40.54000   63.42400    1.19200
      C    C287   -40.12600   62.57600    0.01800
      O    O288   -38.67500   62.47800    0.08800
      C    C289   -40.65700   61.14700    0.16800
      O    O290   -40.93100   60.45000   -1.05300
      C    C291   -39.55000   60.46100    0.92900
      C    C292   -38.29200   61.15800    0.42400
      N    N293   -37.29200   61.17800    1.48800
      C    C294   -37.50200   61.49600    2.81100
      N    N295   -36.50400   61.16400    3.57900
      C    C296   -35.55600   60.65600    2.70400
      C    C297   -34.28300   60.12700    2.95800
      O    O298   -33.71900   59.98200    4.04000
      N    N299   -33.64900   59.73900    1.78800
      C    C300   -34.18000   59.84900    0.52900
      N    N301   -33.40600   59.43300   -0.48400
      N    N302   -35.38000   60.33400    0.27900
      C    C303   -36.00800   60.71400    1.40500
      P    P304   -41.32800   58.87500   -1.01300
      O    O305   -42.24600   58.59500   -2.14300
      O    O306   -41.75300   58.52000    0.36400
      O    O307   -39.94100   58.14300   -1.32000
      C    C308   -38.96200   58.75100   -2.17700
      C    C309   -38.05100   57.71000   -2.79400
      O    O310   -36.82600   57.67200   -2.01400
      C    C311   -38.63700   56.29100   -2.71600
      O    O312   -38.27500   55.39000   -3.77600
      C    C313   -38.10800   55.78100   -1.40000
      C    C314   -36.74300   56.44600   -1.30500
      N    N315   -36.44100   56.71600    0.10000
      C    C316   -35.20900   56.32900    0.60700
      O    O317   -34.35200   55.90200   -0.17200
      N    N318   -34.98400   56.42600    1.93000
      C    C319   -35.93000   56.90700    2.72900
      N    N320   -35.67600   56.95700    4.03300
      C    C321   -37.18200   57.36000    2.22700
      C    C322   -37.38700   57.26200    0.91800
      P    P323   -38.91100   53.89400   -3.81500
      O    O324   -39.40500   53.67600   -5.19400
      O    O325   -39.83500   53.66600   -2.67100
      O    O326   -37.62200   52.98300   -3.62600
      C    C327   -36.45600   53.28800   -4.37300
      C    C328   -35.40700   52.21500   -4.21800
      O    O329   -34.75800   52.35900   -2.93600
      C    C330   -35.96500   50.79700   -4.23000
      O    O331   -34.96400   49.91300   -4.73700
      C    C332   -36.25800   50.54600   -2.76400
      C    C333   -35.11700   51.28500   -2.08000
      N    N334   -35.41000   51.83700   -0.73700
      C    C335   -34.46200   51.67300    0.25700
      O    O336   -33.39700   51.11200    0.08000
      N    N337   -34.81000   52.19200    1.47100
      C    C338   -35.98000   52.84600    1.78800
      O    O339   -36.15500   53.25400    2.93300
      C    C340   -36.92800   52.99200    0.69700
      C    C341   -38.22100   53.70000    0.94400
      C    C342   -36.59900   52.48500   -0.49100
      P    P343   -35.26400   48.34200   -4.87900
      O    O344   -34.73800   47.92700   -6.20900
      O    O345   -36.68100   48.06800   -4.52000
      O    O346   -34.32300   47.70200   -3.76300
      C    C347   -32.96600   48.11900   -3.66400
      C    C348   -32.24000   47.40700   -2.54300
      O    O349   -32.61500   47.95200   -1.25100
      C    C350   -32.56500   45.91800   -2.45500
      O    O351   -31.40300   45.25900   -1.93800
      C    C352   -33.74600   45.89500   -1.49400
      C    C353   -33.34800   46.98700   -0.51200
      N    N354   -34.37700   47.67700    0.25700
      C    C355   -35.56300   48.17500   -0.20500
      N    N356   -36.26100   48.77900    0.72200
      C    C357   -35.49100   48.66500    1.87400
      C    C358   -35.73100   49.13500    3.21100
      O    O359   -36.69200   49.75300    3.64900
      N    N360   -34.69400   48.80800    4.06600
      C    C361   -33.57000   48.11500    3.70600
      N    N362   -32.69500   47.89500    4.69100
      N    N363   -33.32400   47.67000    2.47200
      C    C364   -34.32600   47.98200    1.61100
      P    P365   -31.13100   43.71100   -2.26100
      O    O366   -29.71000   43.53700   -2.67800
      O    O367   -32.24500   43.19900   -3.12100
      O    O368   -31.30600   43.05600   -0.83800
      C    C369   -32.27200   43.60400    0.00800
      C    C370   -31.95100   43.30300    1.44100
      O    O371   -32.73600   44.21800    2.21800
      C    C372   -32.38100   41.90300    1.86700
      O    O373   -31.59500   41.53800    3.01400
      C    C374   -33.83700   42.12600    2.23600
      C    C375   -33.79500   43.52200    2.84200
      N    N376   -34.99500   44.36100    2.73000
      C    C377   -35.27700   45.22400    3.78800
      O    O378   -34.51100   45.23100    4.76300
      N    N379   -36.36200   46.02500    3.72300
      C    C380   -37.15500   45.98100    2.65300
      N    N381   -38.21600   46.78700    2.63800
      C    C382   -36.89400   45.10700    1.55400
      C    C383   -35.81100   44.31900    1.63400
      P    P384   -31.18400   40.00600    3.27600
      O    O385   -29.74000   40.07600    3.60900
      O    O386   -31.64900   39.15800    2.14300
      O    O387   -32.03600   39.63900    4.56900
      C    C388   -33.06900   40.51700    4.94600
      C    C389   -33.52000   40.26200    6.35700
      O    O390   -34.37000   41.40000    6.66500
      C    C391   -34.41400   39.02200    6.44800
      O    O392   -34.40100   38.36700    7.73300
      C    C393   -35.78500   39.58700    6.15600
      C    C394   -35.72200   40.99300    6.73200
      N    N395   -36.54700   41.90100    5.92600
      C    C396   -37.32100   42.81900    6.56900
      O    O397   -37.18100   42.94900    7.77600
      N    N398   -38.21300   43.54300    5.87000
      C    C399   -38.32100   43.37700    4.55900
      N    N400   -39.24400   44.08800    3.91900
      C    C401   -37.49100   42.47600    3.85200
      C    C402   -36.61100   41.77600    4.56700
      P    P403   -35.51900   37.23700    8.08300
      O    O404   -34.84200   36.21900    8.92000
      O    O405   -36.20800   36.80400    6.84200
      O    O406   -36.58200   38.03200    8.97000
      C    C407   -36.14700   38.96000    9.97100
      C    C408   -37.15600   39.05000   11.09600
      O    O409   -38.08900   40.13600   10.82700
      C    C410   -38.01800   37.79100   11.17300
      O    O411   -38.45700   37.43500   12.48600
      C    C412   -39.19500   38.12900   10.28800
      C    C413   -39.37800   39.62100   10.51500
      N    N414   -39.87300   40.25800    9.28300
      C    C415   -41.07900   40.97700    9.31700
      O    O416   -41.63200   41.18300   10.41500
      N    N417   -41.60900   41.42200    8.14900
      C    C418   -40.96900   41.19200    6.99100
      N    N419   -41.53600   41.61600    5.85700
      C    C420   -39.71900   40.51500    6.94200
      C    C421   -39.20600   40.08200    8.09800
      P    P422   -39.32200   36.08100   12.69300
      O    O423   -38.68900   35.33700   13.81300
      O    O424   -39.55000   35.38700   11.38100
      O    O425   -40.71700   36.64300   13.20900
      C    C426   -40.73500   37.63600   14.22200
      C    C427   -42.15200   37.97200   14.61000
      O    O428   -42.77400   38.73100   13.54600
      C    C429   -43.00300   36.71600   14.75600
      O    O430   -44.05000   36.95700   15.69300
      C    C431   -43.54800   36.51800   13.35800
      C    C432   -43.77000   37.95000   12.91400
      N    N433   -43.69300   38.18400   11.47000
      C    C434   -44.60700   39.04700   10.90900
      O    O435   -45.47000   39.61700   11.55800
      N    N436   -44.47700   39.21600    9.54600
      C    C437   -43.55000   38.61500    8.71600
      O    O438   -43.54900   38.86700    7.51400
      C    C439   -42.62900   37.71000    9.37700
      C    C440   -41.60600   36.99100    8.56100
      C    C441   -42.74100   37.55200   10.70300
      P    P442   -45.08600   35.78800   16.05300
      O    O443   -45.20700   35.79700   17.54100
      O    O444   -44.70600   34.53800   15.33900
      O    O445   -46.44400   36.29400   15.40600
      C    C446   -46.96200   37.56300   15.75500
      C    C447   -48.35600   37.72500   15.20300
      O    O448   -48.29300   37.92000   13.77000
      C    C449   -49.18700   36.46000   15.39800
      O    O450   -50.56800   36.83100   15.46400
      C    C451   -48.88400   35.66900   14.13700
      C    C452   -48.81500   36.78000   13.10500
      N    N453   -48.00800   36.53200   11.91400
      C    C454   -46.83200   35.83900   11.81600
      N    N455   -46.34000   35.80300   10.60100
      C    C456   -47.25900   36.51900    9.84600
      C    C457   -47.30900   36.84700    8.47500
      N    N458   -46.37700   36.47200    7.59100
      N    N459   -48.36100   37.57900    8.04000
      C    C460   -49.29100   37.94500    8.93000
      N    N461   -49.35600   37.69300   10.24300
      C    C462   -48.29500   36.97000   10.64100
      P    P463   -51.61300   35.92300   16.27800
      O    O464   -52.52200   36.88300   16.94500
      O    O465   -50.90200   34.89300   17.08300
      O    O466   -52.40500   35.17300   15.12600
      C    C467   -51.86200   35.13600   13.82100
      C    C468   -52.79200   35.81900   12.85200
      O    O469   -52.03400   36.16100   11.67100
      C    C470   -53.91400   34.90600   12.37700
      O    O471   -55.07600   35.68500   12.04100
      C    C472   -53.27800   34.21500   11.18300
      C    C473   -52.38000   35.30200   10.59700
      N    N474   -51.13500   34.77700   10.04000
      C    C475   -50.18100   34.04600   10.70700
      N    N476   -49.17800   33.66300    9.95200
      C    C477   -49.48800   34.18300    8.70100
      C    C478   -48.82800   34.11800    7.45500
      N    N479   -47.68200   33.46300    7.26100
      N    N480   -49.40100   34.75400    6.40700
      C    C481   -50.55700   35.39800    6.59900
      N    N482   -51.28000   35.52200    7.71400
      C    C483   -50.68500   34.88500    8.74300
      P    P484   -56.53600   34.99200   11.98400
      O    O485   -57.51600   35.99000   12.48800
      O    O486   -56.46100   33.65100   12.62200
      O    O487   -56.76700   34.79600   10.42000
      C    C488   -55.66200   34.49200    9.59000
      C    C489   -55.97500   34.78100    8.14700
      O    O490   -54.73700   34.64800    7.41300
      C    C491   -56.92900   33.77900    7.52000
      O    O492   -57.65100   34.39300    6.45600
      C    C493   -55.99700   32.68500    7.03500
      C    C494   -54.73000   33.44400    6.65300
      N    N495   -53.49600   32.70900    7.00900
      C    C496   -52.56300   32.45600    6.03300
      O    O497   -52.68000   32.83400    4.87900
      N    N498   -51.47400   31.74600    6.46300
      C    C499   -51.22100   31.29300    7.74100
      O    O500   -50.19200   30.67700    7.98000
      C    C501   -52.22800   31.60400    8.71400
      C    C502   -52.03000   31.15900   10.12800
      C    C503   -53.30300   32.28600    8.30800
      P    P504   -58.52300   33.48400    5.46700
      O    O505   -59.51200   34.35200    4.77700
      O    O506   -58.98500   32.33400    6.27800
      O    O507   -57.46100   32.97600    4.39700
      C    C508   -56.59400   33.91300    3.77300
      C    C509   -56.21300   33.43700    2.39500
      O    O510   -54.99200   32.66500    2.45900
      C    C511   -57.24800   32.50400    1.78700
      O    O512   -57.21500   32.68100    0.37200
      C    C513   -56.78300   31.13600    2.25900
      C    C514   -55.26300   31.28300    2.24000
      N    N515   -54.50000   30.50500    3.25400
      C    C516   -53.25300   30.01700    2.89400
      O    O517   -52.75800   30.17800    1.78500
      N    N518   -52.59800   29.33100    3.89100
      C    C519   -53.04800   29.08600    5.17300
      O    O520   -52.34200   28.45600    5.95600
      C    C521   -54.36000   29.61900    5.48100
      C    C522   -54.92500   29.40100    6.84900
      C    C523   -55.01300   30.28900    4.52000
      P    P524   -57.70200   31.50600   -0.59700
      O    O525   -58.10300   32.14600   -1.88200
      O    O526   -58.66200   30.64200    0.13600
      O    O527   -56.37800   30.66400   -0.84100
      C    C528   -55.24000   31.29200   -1.40200
      C    C529   -54.40100   30.29300   -2.16400
      O    O530   -53.72000   29.40700   -1.24700
      C    C531   -55.20200   29.36800   -3.07300
      O    O532   -54.33100   28.97900   -4.13500
      C    C533   -55.53800   28.20600   -2.15500
      C    C534   -54.26900   28.10300   -1.32800
      N    N535   -54.36800   27.57800    0.04300
      C    C536   -53.29500   26.83900    0.48600
      O    O537   -52.32500   26.59200   -0.21800
      N    N538   -53.39500   26.40200    1.78500
      C    C539   -54.43900   26.62200    2.66000
      O    O540   -54.37700   26.18100    3.80600
      C    C541   -55.54300   27.38800    2.12400
      C    C542   -56.72300   27.66200    3.00000
      C    C543   -55.45700   27.82200    0.85500
      P    P544   -54.89200   28.14100   -5.38300
      O    O545   -54.65400   28.93500   -6.62100
      O    O546   -56.27000   27.67300   -5.05500
      O    O547   -53.91400   26.89000   -5.39200
      C    C548   -53.43500   26.38700   -4.16000
      C    C549   -52.30300   25.41800   -4.37600
      O    O550   -51.94500   24.91100   -3.07800
      C    C551   -52.65800   24.19100   -5.20200
      O    O552   -51.46700   23.66000   -5.79000
      C    C553   -53.22800   23.24900   -4.16200
      C    C554   -52.42000   23.58300   -2.91600
      N    N555   -53.23100   23.57400   -1.69100
      C    C556   -52.69100   23.01900   -0.55700
      O    O557   -51.57300   22.52400   -0.52500
      N    N558   -53.51100   23.06800    0.54800
      C    C559   -54.78500   23.60400    0.62300
      O    O560   -55.40000   23.58000    1.68600
      C    C561   -55.28800   24.16400   -0.61100
      C    C562   -56.65800   24.76500   -0.63000
      C    C563   -54.49700   24.12100   -1.69100
      P    P564   -51.48900   23.12500   -7.30600
      O    O565   -50.17800   23.48100   -7.91500
      O    O566   -52.74900   23.57600   -7.95200
      O    O567   -51.58300   21.54300   -7.15100
      C    C568   -52.41100   20.97000   -6.15100
      C    C569   -51.60900   20.02100   -5.29500
      O    O570   -51.96400   20.25200   -3.91600
      C    C571   -51.92700   18.55300   -5.55700
      O    O572   -50.80500   17.72600   -5.22200
      C    C573   -53.09500   18.30300   -4.62400
      C    C574   -52.75400   19.17900   -3.42700
      N    N575   -53.91400   19.75900   -2.75500
      C    C576   -54.95800   20.46700   -3.31400
      N    N577   -55.85500   20.86200   -2.44200
      C    C578   -55.37000   20.38200   -1.22500
      C    C579   -55.86000   20.46600    0.09900
      N    N580   -57.00400   21.08500    0.43100
      N    N581   -55.12500   19.88400    1.07800
      C    C582   -53.98900   19.26000    0.74700
      N    N583   -53.42900   19.11000   -0.45000
      C    C584   -54.17600   19.70200   -1.40600
      P    P585   -50.76300   16.19400   -5.71900
      O    O586   -49.66900   15.49700   -4.99900
      O    O587   -50.78000   16.19700   -7.20400
      O    O588   -52.14500   15.58600   -5.21500
      C    C589   -52.22400   14.24800   -4.74100
      C    C590   -51.72700   14.17900   -3.31600
      O    O591   -52.34000   15.25700   -2.56600
      C    C592   -52.16000   12.89600   -2.61100
      O    O593   -51.23100   12.53800   -1.58100
      C    C594   -53.51200   13.27400   -2.03500
      C    C595   -53.30100   14.73300   -1.65700
      N    N596   -54.50000   15.57000   -1.70400
      C    C597   -55.09900   16.13900   -2.80700
      N    N598   -56.17800   16.81800   -2.51300
      C    C599   -56.29700   16.69500   -1.13200
      C    C600   -57.27700   17.22000   -0.23000
      O    O601   -58.26900   17.92800   -0.48500
      N    N602   -57.00700   16.84500    1.08900
      C    C603   -55.93500   16.07300    1.49200
      N    N604   -55.83100   15.81400    2.80600
      N    N605   -55.02500   15.58700    0.66500
      C    C606   -55.26500   15.93200   -0.61900
      P    P607   -51.43900   11.16800   -0.76000
      O    O608   -50.18600   10.36700   -0.80600
      O    O609   -52.72400   10.56100   -1.21600
      O    O610   -51.64200   11.65000    0.74400
      C    C611   -52.81000   12.36500    1.11800
      C    C612   -53.44500   11.72900    2.33000
      O    O613   -54.72400   12.36100    2.54300
      C    C614   -53.76300   10.24800    2.15500
      O    O615   -53.82300    9.63100    3.44300
      C    C616   -55.13600   10.27500    1.51500
      C    C617   -55.77900   11.47800    2.18300
      N    N618   -56.70300   12.23300    1.32700
      C    C619   -57.78600   12.82800    1.93000
      O    O620   -58.02500   12.71800    3.13100
      N    N621   -58.58400   13.56000    1.07500
      C    C622   -58.40400   13.74000   -0.29000
      O    O623   -59.19500   14.43400   -0.93100
      C    C624   -57.25600   13.06900   -0.85100
      C    C625   -56.98700   13.20000   -2.31800
      C    C626   -56.47700   12.35600   -0.02800
      P    P627   -53.89500    8.03300    3.56200
      O    O628   -52.50400    7.51700    3.65400
      O    O629   -54.80100    7.53600    2.48600
      O    O630   -54.59600    7.78100    4.96600
      C    C631   -55.75300    6.95200    5.07100
      C    C632   -56.82200    7.66700    5.86400
      O    O633   -57.41900    8.70100    5.04000
      C    C634   -57.98700    6.76400    6.25200
      O    O635   -58.57900    7.27900    7.44400
      C    C636   -58.93200    6.89000    5.07300
      C    C637   -58.75500    8.34800    4.69800
      N    N638   -58.97200    8.67500    3.29200
      C    C639   -58.38300    8.09500    2.19000
      N    N640   -58.78900    8.61100    1.05800
      C    C641   -59.69900    9.59300    1.43700
      C    C642   -60.47200   10.49700    0.64400
      O    O643   -60.49900   10.61400   -0.58900
      N    N644   -61.27200   11.31800    1.44200
      C    C645   -61.32200   11.27600    2.82200
      N    N646   -62.15400   12.13300    3.41900
      N    N647   -60.60500   10.44700    3.56500
      C    C648   -59.82300    9.64100    2.81400
      P    P649   -59.68400    6.41900    8.21900
      O    O650   -59.31100    6.35400    9.66500
      O    O651   -59.88800    5.15800    7.44800
      O    O652   -60.99200    7.31300    8.08800
      C    C653   -61.17000    8.46900    8.89900
      C    C654   -62.63200    8.83100    8.95000
      O    O655   -63.04400    9.24800    7.62700
      C    C656   -63.50900    7.63100    9.28500
      O    O657   -64.75000    8.08100    9.80200
      C    C658   -63.76800    7.02200    7.91900
      C    C659   -63.85400    8.24800    7.01900
      N    N660   -63.34500    8.02500    5.66800
      C    C661   -62.26900    7.24400    5.31500
      N    N662   -62.04500    7.22700    4.02700
      C    C663   -63.03200    8.04700    3.49500
      C    C664   -63.29100    8.41000    2.14800
      O    O665   -62.68300    8.05900    1.12600
      N    N666   -64.38300    9.26600    2.05000
      C    C667   -65.13200    9.71200    3.11400
      N    N668   -66.14700   10.53600    2.81800
      N    N669   -64.90400    9.37600    4.37800
      C    C670   -63.84400    8.54900    4.49400
