# CIF file generated by openbabel 2.3.2, see http://openbabel.sf.net
data_I
_chemical_name_common '../proteins/pdb/1Y6X.pdb'
_cell_length_a 37.925
_cell_length_b 62.597
_cell_length_c 67.051
_cell_angle_alpha 90
_cell_angle_beta 90
_cell_angle_gamma 90
_space_group_name_H-M_alt 'I 2 2 2'
_space_group_name_Hall 'I 2 2'
loop_
    _symmetry_equiv_pos_as_xyz
    'x,y,z'
    '-x,-y,z'
    '-x,y,-z'
    'x,-y,-z'
    '1/2+x,1/2+y,1/2+z'
    '1/2-x,1/2-y,1/2+z'
    '1/2-x,1/2+y,1/2-z'
    '1/2+x,1/2-y,1/2-z'
loop_
    _atom_site_type_symbol
    _atom_site_label
    _atom_site_Cartn_x
    _atom_site_Cartn_y
    _atom_site_Cartn_z
      N    N1     9.13800   26.52700    5.60400
      C    C2     8.04900   26.27900    4.62200
      C    C3     6.72800   26.80600    5.17500
      O    O4     6.30500   26.41800    6.26500
      C    C5     7.94800   24.77300    4.26700
      C    C6     6.73400   24.49100    3.37400
      C    C7     9.23900   24.30600    3.59300
      N    N8     6.09200   27.70000    4.41900
      C    C9     4.83600   28.33700    4.82600
      C    C10     3.62900   27.77100    4.08100
      O    O11     2.51000   27.80700    4.59800
      C    C12     4.89800   29.84700    4.57600
      C    C13     6.20500   30.50900    5.01100
      C    C14     6.21200   32.01900    4.76500
      C    C15     6.00300   32.38600    3.29800
      N    N16     6.98900   31.75600    2.39100
      N    N17     3.86000   27.28100    2.86300
      C    C18     2.81000   26.73500    2.02900
      C    C19     3.36900   25.53400    1.29500
      O    O20     4.58100   25.36100    1.18000
      C    C21     2.33500   27.75400    0.97200
      O    O22     3.38200   27.96600    0.02000
      C    C23     1.94000   29.09900    1.60300
      N    N24     2.47100   24.70500    0.78500
      C    C25     2.83700   23.55400   -0.01900
      C    C26     3.70600   24.02700   -1.18300
      O    O27     4.70600   23.37400   -1.54500
      C    C28     1.53800   22.92200   -0.48500
      C    C29     1.68100   21.59600   -1.17600
      C    C30     1.66600   20.40800   -0.45100
      C    C31     1.73200   21.52700   -2.55300
      C    C32     1.75500   19.18500   -1.09900
      C    C33     1.82000   20.31400   -3.19800
      C    C34     1.82000   19.14200   -2.46800
      N    N35     3.34000   25.18500   -1.73400
      C    C36     4.08000   25.77300   -2.83500
      C    C37     5.52700   26.15900   -2.49400
      O    O38     6.37200   26.09900   -3.37100
      C    C39     3.33200   26.98000   -3.42900
      C    C40     4.02900   27.61500   -4.63800
      C    C41     3.16200   28.60100   -5.39000
      O    O42     2.36300   29.31300   -4.74900
      O    O43     3.30300   28.67600   -6.62500
      N    N44     5.82300   26.56800   -1.26100
      C    C45     7.20700   26.92200   -0.90100
      C    C46     8.12900   25.72500   -1.12100
      O    O47     9.19900   25.84800   -1.71300
      C    C48     7.33200   27.36000    0.56500
      C    C49     6.74400   28.73200    0.84700
      O    O50     6.42000   29.49200   -0.08900
      O    O51     6.61100   29.03300    2.04800
      N    N52     7.71300   24.55600   -0.63700
      C    C53     8.49800   23.34200   -0.85000
      C    C54     8.59000   23.01300   -2.33300
      O    O55     9.65100   22.64700   -2.82400
      C    C56     7.90800   22.15300   -0.08600
      C    C57     8.68600   20.83900   -0.23000
      C    C58    10.07500   20.94800    0.40200
      C    C59     7.89200   19.70500    0.39100
      N    N60     7.48800   23.16600   -3.05600
      C    C61     7.46700   22.79500   -4.46600
      C    C62     8.45700   23.64200   -5.26100
      O    O63     9.18700   23.12500   -6.10500
      C    C64     6.06100   22.92200   -5.05600
      C    C65     5.89800   22.21700   -6.36700
      C    C66     5.83100   22.93000   -7.55100
      C    C67     5.82500   20.83100   -6.41600
      C    C68     5.67800   22.27800   -8.76600
      C    C69     5.68600   20.17300   -7.63000
      C    C70     5.61300   20.89800   -8.80300
      N    N71     8.49600   24.93900   -4.96500
      C    C72     9.45200   25.84900   -5.60900
      C    C73    10.88500   25.46800   -5.27100
      O    O74    11.76700   25.51300   -6.12400
      C    C75     9.19100   27.27400   -5.17400
      N    N76    11.11800   25.11500   -4.01600
      C    C77    12.42600   24.66300   -3.55800
      C    C78    12.89300   23.43000   -4.33100
      O    O79    14.01700   23.38000   -4.82400
      C    C80    12.37600   24.37300   -2.05400
      C    C81    13.66100   23.83500   -1.44400
      C    C82    13.47400   23.35300   -0.00200
      O    O83    14.01900   22.28400    0.34400
      O    O84    12.76200   24.02600    0.77100
      N    N85    12.02800   22.43200   -4.44900
      C    C86    12.41300   21.20200   -5.13200
      C    C87    12.66800   21.44500   -6.62000
      O    O88    13.56700   20.85200   -7.20100
      C    C89    11.36400   20.11100   -4.92200
      C    C90    11.05900   19.73400   -3.47000
      C    C91    10.14900   18.50500   -3.43400
      C    C92    12.33100   19.49000   -2.66200
      N    N93    11.89800   22.34200   -7.22700
      C    C94    12.17500   22.76600   -8.60000
      C    C95    13.53900   23.42200   -8.74400
      O    O96    14.23700   23.19800   -9.73700
      N    N97    13.92400   24.23100   -7.75600
      C    C98    15.25900   24.84800   -7.72300
      C    C99    16.33600   23.77800   -7.59700
      O    O100    17.36400   23.84300   -8.27300
      C    C101    15.38200   25.84100   -6.55200
      C    C102    16.79700   26.39200   -6.38400
      O    O103    17.55800   25.86500   -5.54600
      O    O104    17.15300   27.34000   -7.10300
      N    N105    16.10600   22.79200   -6.73600
      C    C106    17.05500   21.69700   -6.56500
      C    C107    17.24200   20.91300   -7.86700
      O    O108    18.34800   20.49400   -8.19100
      C    C109    16.60700   20.74600   -5.45100
      C    C110    16.49500   21.37600   -4.06700
      C    C111    17.84000   21.75400   -3.46700
      N    N112    17.68100   22.44900   -2.18400
      C    C113    17.41000   23.74600   -2.04100
      N    N114    17.28500   24.26500   -0.82300
      N    N115    17.25600   24.53700   -3.09900
      N    N116    16.15800   20.70500   -8.61100
      C    C117    16.24700   20.00800   -9.89400
      C    C118    17.06500   20.80300  -10.91500
      O    O119    17.75400   20.22100  -11.76000
      C    C120    14.85400   19.71100  -10.44400
      N    N121    16.98600   22.13000  -10.83900
      C    C122    17.75200   23.00200  -11.72900
      C    C123    19.23500   23.01000  -11.38000
      O    O124    20.09000   22.82900  -12.25000
      C    C125    17.23900   24.44300  -11.65400
      C    C126    16.02200   24.73600  -12.49500
      C    C127    15.79100   26.24200  -12.58900
      N    N128    15.00000   26.74800  -11.47400
      C    C129    13.66900   26.80400  -11.44200
      N    N130    12.93100   26.39000  -12.47000
      N    N131    13.06500   27.28800  -10.36900
      N    N132    19.53500   23.23200  -10.10300
      C    C133    20.91000   23.47000   -9.66000
      C    C134    21.66700   22.18900   -9.31600
      O    O135    22.90200   22.18300   -9.31900
      C    C136    20.95900   24.44200   -8.46100
      O    O137    20.32100   23.84600   -7.32500
      C    C138    20.26400   25.74800   -8.80600
      N    N139    20.93200   21.11500   -9.02300
      C    C140    21.50800   19.79700   -8.76100
      C    C141    22.62700   19.82100   -7.71000
      O    O142    23.76600   19.45000   -7.99600
      C    C143    21.99800   19.16300  -10.07100
      C    C144    20.87100   18.91600  -11.07900
      C    C145    21.37800   18.33800  -12.39400
      N    N146    22.00200   17.03200  -12.20700
      C    C147    21.35500   15.86800  -12.12500
      N    N148    20.03600   15.79100  -12.24800
      N    N149    22.04600   14.75200  -11.93700
      N    N150    22.29200   20.23500   -6.47600
      C    C151    23.30700   20.24500   -5.43200
      C    C152    23.57200   18.83900   -4.91900
      O    O153    22.69000   17.97200   -4.97300
      C    C154    22.68500   21.12100   -4.34600
      C    C155    21.23800   20.96600   -4.51800
      C    C156    20.98200   20.68000   -5.97300
      N    N157    24.77800   18.61000   -4.41500
      C    C158    25.16400   17.28300   -3.94100
      C    C159    24.24200   16.74100   -2.83900
      O    O160    24.04500   15.53100   -2.74000
      C    C161    26.60600   17.30400   -3.45200
      N    N162    23.67000   17.63700   -2.03500
      C    C163    22.86500   17.26600   -0.86100
      C    C164    21.38400   16.93800   -1.13500
      O    O165    20.66100   16.53700   -0.22000
      C    C166    22.93100   18.41200    0.15400
      C    C167    22.36200   18.03600    1.50600
      O    O168    21.50000   18.78100    2.00900
      O    O169    22.77300   16.99700    2.05900
      N    N170    20.92800   17.09300   -2.37500
      C    C171    19.49500   16.98900   -2.66700
      C    C172    19.02700   15.56300   -2.94200
      O    O173    19.43400   14.93700   -3.92400
      C    C174    19.11800   17.88300   -3.84700
      O    O175    17.74200   17.74100   -4.16700
      N    N176    18.14900   15.06800   -2.07600
      C    C177    17.49100   13.78100   -2.26700
      C    C178    16.65900   13.77100   -3.55600
      O    O179    16.56800   12.74900   -4.24000
      C    C180    16.59000   13.46000   -1.05200
      O    O181    17.41200   13.31400    0.11400
      C    C182    15.79400   12.18300   -1.26300
      N    N183    16.05700   14.91300   -3.88100
      C    C184    15.21400   15.04100   -5.06700
      C    C185    15.99000   14.70700   -6.34200
      O    O186    15.45900   14.05100   -7.23100
      C    C187    14.61700   16.47000   -5.17300
      O    O188    13.75500   16.71200   -4.05400
      C    C189    13.82500   16.64600   -6.46300
      N    N190    17.24200   15.14500   -6.42100
      C    C191    18.05700   14.94500   -7.62100
      C    C192    18.21000   13.45800   -7.93700
      O    O193    17.90300   13.02200   -9.04500
      C    C194    19.45200   15.60100   -7.47800
      C    C195    20.33700   15.27600   -8.68200
      C    C196    19.31700   17.10700   -7.31800
      N    N197    18.67500   12.68800   -6.95600
      C    C198    18.84300   11.24900   -7.12000
      C    C199    17.51200   10.57200   -7.44100
      O    O200    17.44300    9.69600   -8.29400
      C    C201    19.46000   10.64100   -5.87100
      N    N202    16.45400   10.99900   -6.75900
      C    C203    15.11800   10.45100   -6.98300
      C    C204    14.60000   10.74400   -8.39400
      O    O205    13.99200    9.87600   -9.02700
      C    C206    14.14700   10.99100   -5.93700
      N    N207    14.82900   11.96200   -8.88200
      C    C208    14.40100   12.34000  -10.23500
      C    C209    15.20500   11.61300  -11.31000
      O    O210    14.64700   11.22000  -12.33800
      C    C211    14.49000   13.85400  -10.43700
      C    C212    13.45800   14.67400   -9.66100
      C    C213    13.76600   16.15500   -9.78600
      C    C214    12.03600   14.37600  -10.13700
      N    N215    16.50300   11.43400  -11.06900
      C    C216    17.35400   10.63500  -11.96100
      C    C217    16.97100    9.14900  -11.95800
      O    O218    17.20300    8.44700  -12.94600
      C    C219    18.82500   10.74000  -11.54800
      C    C220    19.40100   12.13200  -11.72700
      O    O221    18.77600   12.98200  -12.39900
      O    O222    20.50100   12.37000  -11.18600
      N    N223    16.39100    8.68500  -10.85000
      C    C224    16.17600    7.25900  -10.59500
      C    C225    14.93500    6.59300  -11.16800
      O    O226    14.81600    5.37100  -11.11200
      N    N227    13.99600    7.37500  -11.69200
      C    C228    12.84100    6.81200  -12.39900
      C    C229    11.56500    6.71500  -11.57900
      O    O230    11.59400    6.65200  -10.34800
      N    N231    10.44000    6.69300  -12.28300
      C    C232     9.11700    6.76400  -11.66500
      C    C233     8.76400    5.55800  -10.78600
      O    O234     8.08000    5.70600   -9.77800
      C    C235     8.01600    6.95500  -12.74900
      C    C236     7.85900    5.71300  -13.61400
      C    C237     6.68900    7.32400  -12.11800
      N    N238     9.21800    4.36900  -11.16600
      C    C239     8.84000    3.15300  -10.45000
      C    C240     9.26600    3.20600   -8.98400
      O    O241     8.47700    2.88900   -8.08300
      C    C242     9.43200    1.92200  -11.13900
      C    C243     8.80600    0.63500  -10.71100
      N    N244     9.31200   -0.13600   -9.68900
      C    C245     7.70800   -0.01400  -11.16500
      C    C246     8.55500   -1.20700   -9.53600
      N    N247     7.57400   -1.15600  -10.41600
      N    N248    10.49600    3.64300   -8.74800
      C    C249    11.02200    3.77500   -7.39600
      C    C250    10.27300    4.85400   -6.60600
      O    O251    10.11100    4.73000   -5.39700
      C    C252    12.51100    4.08400   -7.43600
      N    N253     9.83000    5.91400   -7.28400
      C    C254     9.06900    6.97900   -6.62600
      C    C255     7.69500    6.49200   -6.17900
      O    O256     7.25000    6.81300   -5.07700
      C    C257     8.90900    8.19300   -7.55100
      C    C258    10.19300    8.88900   -8.00100
      C    C259     9.88800   10.05000   -8.93300
      C    C260    10.98300    9.36600   -6.80900
      N    N261     7.01300    5.73500   -7.03200
      C    C262     5.72600    5.15700   -6.66500
      C    C263     5.83800    4.23000   -5.47100
      O    O264     4.99700    4.25200   -4.56800
      N    N265     6.88600    3.41600   -5.46300
      C    C266     7.16000    2.50800   -4.35400
      C    C267     7.36100    3.27300   -3.04800
      O    O268     6.79300    2.92000   -2.01800
      C    C269     8.40300    1.68000   -4.67100
      C    C270     8.63200    0.51000   -3.74700
      C    C271     9.73100   -0.39400   -4.29600
      C    C272     9.27500   -1.15300   -5.54600
      N    N273     9.98100   -2.44700   -5.74900
      N    N274     8.16600    4.32600   -3.10000
      C    C275     8.42600    5.16100   -1.93900
      C    C276     7.15400    5.81400   -1.41000
      O    O277     6.91200    5.85000   -0.20700
      C    C278     9.43500    6.24000   -2.31300
      C    C279    10.11200    6.89100   -1.14600
      C    C280    11.07000    5.94000   -0.45700
      C    C281    11.88000    6.64900    0.60500
      N    N282    12.48400    5.68300    1.56100
      N    N283     6.33900    6.32600   -2.32200
      C    C284     5.07000    6.93100   -1.94600
      C    C285     4.15500    5.92900   -1.24100
      O    O286     3.52700    6.25200   -0.23000
      C    C287     4.37300    7.48400   -3.18300
      C    C288     3.11000    8.29700   -2.90600
      C    C289     3.46900    9.66500   -2.38100
      C    C290     2.28100    8.39400   -4.17000
      N    N291     4.06700    4.71600   -1.77700
      C    C292     3.24400    3.68700   -1.15900
      C    C293     3.75900    3.30700    0.24300
      O    O294     2.97100    3.17800    1.19500
      C    C295     3.17300    2.46600   -2.07700
      C    C296     2.25600    1.33900   -1.60200
      C    C297     0.80400    1.80500   -1.48000
      C    C298     2.38400    0.13600   -2.54400
      N    N299     5.07100    3.11700    0.36500
      C    C300     5.71200    2.87900    1.66500
      C    C301     5.30600    3.94900    2.67400
      O    O302     4.93200    3.64600    3.81100
      C    C303     7.24200    2.89100    1.52900
      C    C304     8.01900    3.05200    2.84800
      C    C305     9.51000    3.29300    2.63400
      O    O306    10.18700    3.71900    3.59200
      O    O307    10.00600    3.07200    1.51000
      N    N308     5.38600    5.20600    2.25000
      C    C309     5.08700    6.30800    3.15200
      C    C310     3.61700    6.34500    3.53900
      O    O311     3.29600    6.67000    4.67900
      C    C312     5.55600    7.64900    2.57300
      C    C313     6.96400    8.02100    3.01200
      C    C314     7.16200    7.88100    4.51800
      O    O315     8.17000    7.26700    4.91800
      O    O316     6.29200    8.34200    5.29300
      N    N317     2.72600    5.99300    2.61400
      C    C318     1.30900    5.89400    2.95000
      C    C319     1.07900    4.85300    4.05200
      O    O320     0.27000    5.07100    4.95500
      C    C321     0.48900    5.57300    1.72300
      N    N322     1.80300    3.73800    3.98300
      C    C323     1.75500    2.71600    5.03400
      C    C324     2.27600    3.24500    6.36700
      O    O325     1.66600    3.02300    7.40900
      N    N326     3.39500    3.96200    6.33600
      C    C327     3.94400    4.59500    7.53800
      C    C328     2.95400    5.59600    8.13700
      O    O329     2.81500    5.68600    9.35400
      C    C330     5.24300    5.33300    7.21000
      C    C331     6.39000    4.43100    6.81100
      C    C332     7.13000    3.82200    7.98000
      O    O333     8.18600    3.21000    7.71700
      O    O334     6.67800    3.95000    9.14100
      N    N335     2.28700    6.37000    7.28300
      C    C336     1.27200    7.30900    7.74300
      C    C337     0.11800    6.57700    8.42900
      O    O338    -0.34400    6.99700    9.48500
      C    C339     0.75700    8.18700    6.58800
      C    C340    -0.50100    8.94800    6.99500
      C    C341     1.86100    9.15600    6.14800
      N    N342    -0.34400    5.47800    7.84400
      C    C343    -1.43200    4.71900    8.46000
      C    C344    -1.00300    4.20100    9.84700
      O    O345    -1.72500    4.36000   10.83700
      C    C346    -1.85400    3.54900    7.56300
      C    C347    -3.16500    2.89600    7.94800
      C    C348    -3.96200    3.19600    9.02300
      C    C349    -3.81200    1.81800    7.26300
      N    N350    -5.06700    2.38900    9.03200
      C    C351    -4.99600    1.52500    7.97200
      C    C352    -3.50400    1.06600    6.12500
      C    C353    -5.87800    0.52000    7.57500
      C    C354    -4.38500    0.06200    5.73000
      C    C355    -5.55600   -0.19700    6.45500
      N    N356     0.16500    3.57300    9.92000
      C    C357     0.69300    3.10300   11.20500
      C    C358     0.73000    4.22000   12.24000
      O    O359     0.29000    4.03600   13.37400
      C    C360     2.09900    2.53200   11.04600
      C    C361     2.18800    1.08800   10.55700
      C    C362     3.60400    0.81800   10.10300
      C    C363     1.77800    0.09500   11.62500
      N    N364     1.25000    5.37900   11.84800
      C    C365     1.36900    6.49900   12.77200
      C    C366     0.00600    7.05200   13.17800
      O    O367    -0.19400    7.41200   14.33800
      C    C368     2.23000    7.59600   12.17000
      N    N369    -0.93600    7.09500   12.23600
      C    C370    -2.29000    7.59100   12.51500
      C    C371    -3.01400    6.72200   13.53800
      O    O372    -3.79000    7.22200   14.35300
      C    C373    -3.10600    7.67100   11.22600
      N    N374    -2.76800    5.42200   13.47700
      C    C375    -3.40300    4.45800   14.37000
      C    C376    -2.72600    4.34700   15.72500
      O    O377    -3.39100    4.06200   16.72500
      C    C378    -3.35900    3.07500   13.72300
      C    C379    -4.18700    2.95300   12.48200
      C    C380    -5.52500    2.29900   12.71100
      O    O381    -6.23600    2.15400   11.72000
      O    O382    -5.87500    1.92700   13.84900
      N    N383    -1.40800    4.50900   15.75700
      C    C384    -0.63600    4.07500   16.91600
      C    C385     0.39700    5.03200   17.47100
      O    O386     0.94400    4.74800   18.53200
      C    C387     0.07400    2.75500   16.58800
      C    C388    -0.86400    1.62800   16.30200
      N    N389    -1.57300    0.98100   17.29100
      C    C390    -1.22200    1.04200   15.13600
      C    C391    -2.32800    0.04500   16.74400
      N    N392    -2.12900    0.05700   15.43900
      N    N393     0.68700    6.14200   16.79300
      C    C394     1.79900    6.99100   17.21900
      C    C395     1.36300    8.41100   17.57100
      O    O396     0.19800    8.76900   17.41800
      C    C397     2.90100    6.98600   16.15300
      C    C398     3.39800    5.57400   15.77700
      C    C399     4.00200    4.79000   16.93600
      O    O400     4.49900    5.40600   17.90100
      O    O401     3.99000    3.53700   16.87300
      N    N402     2.31500    9.20000   18.06500
      C    C403     2.04700   10.54700   18.54100
      C    C404     1.68500   11.48500   17.39800
      O    O405     1.95000   11.18800   16.22700
      C    C406     3.28000   11.09200   19.25300
      O    O407     4.32000   11.30000   18.31300
      N    N408     1.08400   12.61800   17.74400
      C    C409     0.81400   13.65300   16.75700
      C    C410     2.08000   14.05500   16.00100
      O    O411     2.04600   14.25600   14.78500
      C    C412     0.24700   14.91500   17.41800
      C    C413    -1.23000   14.82200   17.73800
      O    O414    -1.79300   13.74000   17.88100
      N    N415    -1.87300   15.98700   17.85500
      N    N416     3.19300   14.18900   16.72100
      C    C417     4.45900   14.55700   16.10000
      C    C418     4.94200   13.51300   15.09800
      O    O419     5.40100   13.85900   14.00700
      C    C420     5.52800   14.75000   17.17100
      C    C421     6.83500   15.23500   16.59900
      O    O422     7.82700   14.48600   16.60800
      O    O423     6.86700   16.40200   16.16300
      N    N424     4.85800   12.24400   15.47900
      C    C425     5.27100   11.16100   14.60300
      C    C426     4.40400   11.13300   13.34300
      O    O427     4.90500   10.95400   12.23200
      C    C428     5.20400    9.83300   15.33200
      N    N429     3.10600   11.34200   13.51200
      C    C430     2.20800   11.40400   12.36600
      C    C431     2.52600   12.59600   11.45600
      O    O432     2.55300   12.46100   10.23200
      C    C433     0.76100   11.48000   12.83500
      C    C434    -0.27400   11.61000   11.71300
      C    C435    -0.21100   10.43200   10.73200
      C    C436    -1.66300   11.72300   12.32200
      N    N437     2.77700   13.75700   12.04700
      C    C438     3.15400   14.93000   11.26900
      C    C439     4.42600   14.66900   10.46600
      O    O440     4.52900   15.08500    9.30900
      C    C441     3.32400   16.13100   12.18000
      N    N442     5.39400   13.99000   11.07900
      C    C443     6.62400   13.61700   10.38800
      C    C444     6.34300   12.75500    9.16100
      O    O445     6.84100   13.04000    8.07200
      C    C446     7.59200   12.90500   11.34400
      C    C447     8.82800   12.31500   10.68500
      C    C448     9.68900   13.33700    9.97400
      O    O449     9.76900   14.48600   10.44500
      O    O450    10.31300   12.98000    8.95200
      N    N451     5.57000   11.69100    9.33000
      C    C452     5.30300   10.79800    8.20800
      C    C453     4.46300   11.48100    7.12900
      O    O454     4.74400   11.31500    5.94700
      C    C455     4.64400    9.49700    8.67500
      C    C456     5.48400    8.68500    9.67400
      C    C457     6.90000    8.38200    9.19900
      O    O458     7.10600    8.12300    7.99200
      O    O459     7.81700    8.38000   10.04800
      N    N460     3.48500   12.29100    7.52700
      C    C461     2.72200   13.06500    6.55800
      C    C462     3.62700   14.00900    5.77000
      O    O463     3.49300   14.11700    4.54800
      C    C464     1.55100   13.80800    7.21700
      C    C465     0.47300   12.79300    7.61500
      C    C466     0.97600   14.84600    6.27100
      C    C467    -0.72100   13.38100    8.32700
      N    N468     4.56400   14.66700    6.44400
      C    C469     5.46100   15.57600    5.74700
      C    C470     6.26600   14.82500    4.67800
      O    O471     6.50000   15.35800    3.58800
      C    C472     6.37200   16.32900    6.72700
      O    O473     7.43700   15.53100    7.22100
      N    N474     6.66400   13.58800    4.97200
      C    C475     7.39000   12.78200    4.00200
      C    C476     6.49500   12.33100    2.85000
      O    O477     6.92400   12.31800    1.69800
      C    C478     8.06200   11.60400    4.69100
      C    C479     9.28700   12.06100    5.47400
      C    C480    10.41800   12.48200    4.54800
      O    O481    10.85900   13.63300    4.56100
      N    N482    10.87500   11.55100    3.71900
      N    N483     5.25000   11.97400    3.14300
      C    C484     4.29900   11.63700    2.08800
      C    C485     4.12500   12.82800    1.14300
      O    O486     4.12400   12.65700   -0.07800
      C    C487     2.95100   11.23600    2.68500
      C    C488     1.89300   10.77000    1.67900
      C    C489     2.29000    9.43500    1.05700
      C    C490     0.55000   10.64600    2.35500
      N    N491     3.97200   14.02700    1.70000
      C    C492     3.81800   15.22500    0.87800
      C    C493     5.06600   15.48800    0.03400
      O    O494     4.96900   15.82900   -1.14900
      C    C495     3.48500   16.44300    1.74600
      C    C496     2.14700   16.38700    2.50200
      C    C497     1.93400   17.65100    3.30200
      C    C498     0.98600   16.14500    1.54300
      N    N499     6.23200   15.33500    0.65100
      C    C500     7.49500   15.47000   -0.07200
      C    C501     7.56700   14.53100   -1.28400
      O    O502     7.84300   14.97000   -2.40300
      C    C503     8.67700   15.23100    0.88400
      C    C504     9.99900   15.10200    0.16800
      C    C505    10.53700   13.85100   -0.10800
      C    C506    10.70000   16.22400   -0.25300
      C    C507    11.73300   13.72600   -0.79000
      C    C508    11.89800   16.10400   -0.92800
      C    C509    12.41200   14.85600   -1.18600
      O    O510    13.59700   14.72800   -1.86500
      N    N511     7.32400   13.23800   -1.07300
      C    C512     7.41700   12.28600   -2.17600
      C    C513     6.34500   12.52000   -3.23900
      O    O514     6.58200   12.27800   -4.42100
      C    C515     7.40300   10.83800   -1.67200
      C    C516     8.67100   10.49400   -0.96500
      C    C517     8.83100   10.26400    0.36900
      C    C518     9.97300   10.36600   -1.55400
      N    N519    10.14300    9.99400    0.64700
      C    C520    10.86900   10.05500   -0.51300
      C    C521    10.46700   10.47800   -2.85800
      C    C522    12.23200    9.85100   -0.73600
      C    C523    11.82700   10.27400   -3.07900
      C    C524    12.68900    9.96500   -2.02100
      N    N525     5.17700   13.01000   -2.83400
      C    C526     4.14500   13.36600   -3.79600
      C    C527     4.65700   14.47400   -4.73100
      O    O528     4.45800   14.41700   -5.93700
      C    C529     2.87000   13.81600   -3.07000
      O    O530     2.34300   12.72400   -2.30600
      C    C531     1.82400   14.25200   -4.05700
      N    N532     5.32300   15.47500   -4.16100
      C    C533     5.90400   16.57000   -4.94800
      C    C534     7.01000   16.09400   -5.88100
      O    O535     7.07800   16.51500   -7.03400
      C    C536     6.40800   17.69800   -4.03900
      C    C537     5.27500   18.42300   -3.32300
      C    C538     5.67800   19.72700   -2.67300
      O    O539     4.90000   20.31300   -1.91600
      N    N540     6.88100   20.17800   -2.94200
      N    N541     7.86300   15.19400   -5.40100
      C    C542     8.92300   14.65800   -6.25000
      C    C543     8.30500   13.90600   -7.44300
      O    O544     8.76100   14.05400   -8.57800
      C    C545     9.88800   13.75200   -5.45900
      C    C546    10.91800   13.15600   -6.39800
      C    C547    10.59000   14.53800   -4.35300
      N    N548     7.25400   13.13300   -7.18300
      C    C549     6.53200   12.45900   -8.25900
      C    C550     5.92600   13.44600   -9.26000
      O    O551     6.02000   13.23600  -10.46800
      C    C552     5.44500   11.55600   -7.67500
      C    C553     4.72100   10.64300   -8.65600
      C    C554     5.70100    9.67700   -9.31300
      C    C555     3.63900    9.89700   -7.91300
      N    N556     5.30900   14.51900   -8.76800
      C    C557     4.77300   15.56300   -9.64800
      C    C558     5.86800   16.11200  -10.55900
      O    O559     5.68300   16.23400  -11.76700
      C    C560     4.16200   16.70500   -8.83200
      C    C561     2.88100   16.34600   -8.12400
     Se   Se562     2.29400   17.70700   -6.87200
      C    C563     2.00900   19.18300   -8.13300
      N    N564     7.02000   16.43300   -9.98200
      C    C565     8.12500   16.96700  -10.77600
      C    C566     8.65300   15.92900  -11.78100
      O    O567     8.97300   16.26600  -12.92300
      C    C568     9.24600   17.48600   -9.86100
      C    C569     8.74400   18.69100   -9.05300
      C    C570    10.48000   17.87800  -10.67800
      C    C571     9.61600   19.04900   -7.87600
      N    N572     8.74200   14.66700  -11.37300
      C    C573     9.17500   13.60000  -12.28600
      C    C574     8.29800   13.51300  -13.53500
      O    O575     8.79700   13.33200  -14.64400
      C    C576     9.15800   12.25100  -11.56900
      O    O577     9.49500   11.20800  -12.46300
      N    N578     6.98900   13.63400  -13.35500
      C    C579     6.04400   13.53000  -14.46700
      C    C580     5.72500   14.86800  -15.14800
      O    O581     4.96900   14.89800  -16.12400
      C    C582     4.75900   12.84900  -13.97900
      C    C583     4.85000   11.31100  -13.91400
      C    C584     4.86400   10.64400  -15.29900
      N    N585     3.72900   11.05700  -16.11700
      C    C586     2.55800   10.43100  -16.19700
      N    N587     2.31500    9.31100  -15.53500
      N    N588     1.62300   10.94300  -16.97500
      N    N589     6.27600   15.96500  -14.64500
      C    C590     6.07700   17.26600  -15.27700
      C    C591     4.77100   17.95200  -14.93800
      O    O592     4.28200   18.76600  -15.71900
      N    N593     4.20300   17.63900  -13.77600
      C    C594     2.98800   18.30600  -13.30900
      C    C595     3.31700   19.59100  -12.56100
      O    O596     4.29800   19.64900  -11.81800
      C    C597     2.18800   17.41500  -12.35800
      C    C598     1.52400   16.16200  -12.92500
      C    C599     0.76900   15.44000  -11.82300
      C    C600     0.60100   16.48100  -14.07700
      N    N601     2.46100   20.59700  -12.73300
      C    C602     2.53700   21.85000  -11.97600
      C    C603     1.60600   21.78700  -10.77500
      O    O604     0.72800   20.93100  -10.71700
      C    C605     2.13200   23.02600  -12.86800
      O    O606     0.76800   22.92400  -13.26200
      N    N607     1.78200   22.69900   -9.81600
      C    C608     0.82900   22.83400   -8.71700
      C    C609    -0.57700   23.06600   -9.26400
      O    O610    -1.52800   22.46400   -8.78000
      C    C611     1.20900   23.98100   -7.76800
      C    C612     2.44300   23.75200   -6.90200
      C    C613     2.85100   25.03900   -6.22800
      C    C614     2.20800   22.66700   -5.87800
      N    N615    -0.69600   23.95200  -10.25700
      C    C616    -1.99100   24.27500  -10.86700
      C    C617    -2.68000   23.05000  -11.45500
      O    O618    -3.89600   22.92900  -11.35300
      C    C619    -1.84100   25.33800  -11.96800
      C    C620    -1.67800   26.74800  -11.42400
      O    O621    -1.76600   26.95900  -10.19800
      O    O622    -1.45200   27.65600  -12.24700
      N    N623    -1.90900   22.14400  -12.05500
      C    C624    -2.47500   20.90200  -12.59300
      C    C625    -3.24200   20.12500  -11.51800
      O    O626    -4.29900   19.56200  -11.78500
      C    C627    -1.38200   19.99600  -13.16700
      C    C628    -0.80000   20.50700  -14.47700
      O    O629    -1.49200   21.25700  -15.20700
      O    O630     0.35500   20.13700  -14.78100
      N    N631    -2.68700   20.08400  -10.30900
      C    C632    -3.31100   19.38400   -9.19300
      C    C633    -4.38500   20.24100   -8.52600
      O    O634    -5.47400   19.76100   -8.23900
      C    C635    -2.24400   18.93800   -8.17700
      C    C636    -2.87900   18.37500   -6.89800
      C    C637    -1.32200   17.91500   -8.83100
      N    N638    -4.07700   21.51000   -8.29200
      C    C639    -4.98400   22.37800   -7.55400
      C    C640    -6.30100   22.61800   -8.28000
      O    O641    -7.32600   22.79500   -7.63000
      C    C642    -4.31400   23.71300   -7.23800
      C    C643    -3.25500   23.67200   -6.14700
      C    C644    -2.95000   22.49900   -5.45000
      C    C645    -2.57400   24.83100   -5.79100
      C    C646    -1.98200   22.49200   -4.44300
      C    C647    -1.61200   24.82700   -4.78200
      C    C648    -1.32800   23.66100   -4.12000
      O    O649    -0.38600   23.67500   -3.12200
      N    N650    -6.28000   22.59000   -9.61300
      C    C651    -7.50600   22.75400  -10.40000
      C    C652    -8.53000   21.65000  -10.15100
      O    O653    -9.70100   21.81400  -10.49300
      C    C654    -7.19000   22.84700  -11.89800
      C    C655    -6.77100   24.24100  -12.35400
      C    C656    -6.82200   24.36700  -13.86400
      N    N657    -5.92100   23.41800  -14.50300
      C    C658    -4.67400   23.67800  -14.90000
      N    N659    -4.13600   24.89100  -14.76300
      N    N660    -3.95800   22.71100  -15.45800
      N    N661    -8.10000   20.54300   -9.54500
      C    C662    -8.97800   19.41000   -9.28800
      C    C663    -9.49500   19.35500   -7.85100
      O    O664   -10.26900   18.46200   -7.50600
      C    C665    -8.25900   18.11500   -9.66700
      C    C666    -7.92500   18.08800  -11.15100
      C    C667    -7.34900   16.77900  -11.60300
      C    C668    -7.09500   16.79600  -13.09800
      N    N669    -8.34500   16.92800  -13.90600
      N    N670    -9.09600   20.31900   -7.02500
      C    C671    -9.52400   20.35100   -5.62600
      C    C672   -10.72100   21.26300   -5.39300
      O    O673   -11.45000   21.08300   -4.41100
      C    C674    -8.37100   20.78900   -4.73400
      C    C675    -7.21000   19.80000   -4.67700
      C    C676    -6.05200   20.42900   -3.94600
      C    C677    -7.62400   18.48700   -4.01600
