# CIF file generated by openbabel 2.3.2, see http://openbabel.sf.net
data_I
_chemical_name_common '../proteins/pdb/1ZLJ.pdb'
_cell_length_a 33.069
_cell_length_b 60.488
_cell_length_c 74.226
_cell_angle_alpha 89.9
_cell_angle_beta 89.91
_cell_angle_gamma 90.99
_space_group_name_H-M_alt 'P 1'
_space_group_name_Hall 'P 1'
loop_
    _symmetry_equiv_pos_as_xyz
    'x,y,z'
loop_
    _atom_site_type_symbol
    _atom_site_label
    _atom_site_Cartn_x
    _atom_site_Cartn_y
    _atom_site_Cartn_z
      N    N1    -7.52600   29.16800   30.32900
      C    C2    -6.53700   29.21500   31.45200
      C    C3    -5.23900   28.51400   31.02800
      O    O4    -5.19800   27.28700   30.97200
      C    C5    -7.11200   28.49200   32.67900
      C    C6    -7.15500   29.36300   33.93900
      O    O7    -7.57400   30.55200   33.85000
      O    O8    -6.82200   28.91600   35.06500
      N    N9    -4.17500   29.26100   30.73500
      C    C10    -2.90900   28.61700   30.35400
      C    C11    -2.14900   28.02200   31.55800
      O    O12    -2.46000   28.34500   32.70900
      C    C13    -2.09500   29.74700   29.68700
      C    C14    -2.82900   31.01900   29.94300
      C    C15    -4.07700   30.73000   30.73600
      N    N16    -1.17900   27.15300   31.27400
      C    C17    -0.30500   26.61200   32.29800
      C    C18     0.73100   27.69100   32.66000
      O    O19     1.86400   27.68900   32.16800
      C    C20     0.36400   25.30200   31.84900
      C    C21     0.45300   24.26900   32.99100
      C    C22     0.66700   22.85500   32.46200
      C    C23     1.57800   24.62700   33.98000
      N    N24     0.30900   28.59900   33.53600
      C    C25     1.10000   29.77700   33.89400
      C    C26     2.07500   29.47100   35.00500
      O    O27     3.08900   30.12000   35.13000
      C    C28     0.16400   30.89900   34.32000
      O    O29    -0.53300   31.38500   33.18800
      N    N30     1.76400   28.48100   35.82400
      C    C31     2.69100   28.04300   36.83300
      C    C32     3.64300   27.02900   36.25200
      O    O33     3.73600   26.84900   35.05200
      N    N34     4.32500   26.32300   37.13000
      C    C35     5.31700   25.36500   36.69800
      C    C36     4.78200   23.95900   36.74100
      O    O37     4.16200   23.55000   37.73100
      C    C38     6.54000   25.45900   37.60100
      C    C39     7.17000   26.82800   37.77300
      C    C40     8.43100   26.65800   38.58700
      C    C41     7.49000   27.48500   36.49600
      N    N42     5.04700   23.21900   35.67300
      C    C43     4.80800   21.77800   35.65300
      C    C44     5.77300   21.05700   36.57600
      O    O45     6.74400   21.61900   37.06900
      C    C46     4.99300   21.18000   34.25600
      O    O47     6.38800   21.17200   33.90600
      C    C48     4.31900   22.02600   33.17200
      N    N49     5.49400   19.78100   36.79100
      C    C50     6.33500   18.97300   37.64800
      C    C51     7.73600   18.89800   37.03000
      O    O52     8.72900   19.04100   37.73400
      C    C53     5.69500   17.59700   37.88300
      C    C54     4.53900   17.64800   38.88700
      O    O55     4.52900   18.52200   39.78500
      O    O56     3.57500   16.85800   38.86100
      N    N57     7.84000   18.74800   35.72100
      C    C58     9.16500   18.77200   35.12700
      C    C59     9.89700   20.11600   35.26600
      O    O60    11.13000   20.14200   35.39400
      C    C61     9.13700   18.30300   33.69000
      C    C62     9.47800   16.80700   33.59000
      C    C63     9.60700   16.36000   32.15800
      O    O64    10.39800   15.47300   31.84200
      N    N65     8.85000   16.99800   31.27900
      N    N66     9.14400   21.21400   35.26200
      C    C67     9.73100   22.54700   35.38800
      C    C68    10.24800   22.78300   36.79900
      O    O69    11.28000   23.41200   36.97000
      C    C70     8.71700   23.61800   34.96200
      C    C71     8.66300   23.80500   33.46800
      C    C72     7.59100   24.77800   32.97900
      O    O73     6.49300   24.85400   33.61400
      O    O74     7.88000   25.46600   31.95400
      N    N75     9.56100   22.22900   37.80000
      C    C76     9.97100   22.34600   39.18300
      C    C77    11.26900   21.58100   39.37600
      O    O78    12.21900   22.08300   39.98200
      C    C79     8.87700   21.81700   40.14400
      C    C80     7.62600   22.72500   40.22100
      C    C81     6.53200   22.28700   41.24000
      N    N82     6.80000   22.77000   42.60000
      C    C83     6.66400   24.04700   43.00600
      N    N84     6.26700   25.00700   42.14600
      N    N85     6.93400   24.36900   44.27400
      N    N86    11.31100   20.37900   38.81400
      C    C87    12.50900   19.56400   38.86600
      C    C88    13.65200   20.24900   38.12600
      O    O89    14.78100   20.34000   38.61900
      C    C90    12.17300   18.17100   38.30500
      O    O91    11.29200   17.53500   39.24500
      C    C92    13.37300   17.24400   38.27900
      N    N93    13.33600   20.79800   36.97200
      C    C94    14.32000   21.51900   36.20900
      C    C95    14.88500   22.66900   37.06000
      O    O96    16.09900   22.85900   37.10800
      C    C97    13.72500   21.94600   34.87600
      C    C98    14.59500   22.65600   33.85000
      C    C99    15.92500   21.95700   33.62100
      C    C100    13.79700   22.79100   32.56300
      N    N101    14.02800   23.37700   37.80000
      C    C102    14.49200   24.46600   38.63800
      C    C103    15.47400   23.93600   39.66800
      O    O104    16.53800   24.52900   39.89400
      C    C105    13.31800   25.12400   39.36200
      C    C106    13.15900   26.63300   39.28100
      C    C107    13.74900   27.23600   38.02800
      C    C108    11.72400   26.97000   39.38900
      N    N109    15.11900   22.82600   40.30700
      C    C110    15.95400   22.25500   41.34100
      C    C111    17.28200   21.83900   40.76900
      O    O112    18.31100   22.03700   41.38300
      N    N113    17.28700   21.26400   39.58100
      C    C114    18.55500   20.81000   39.01400
      C    C115    19.45400   21.94400   38.50500
      O    O116    20.68600   21.85600   38.57300
      C    C117    18.31900   19.79100   37.93600
      C    C118    17.70600   18.51200   38.46600
      C    C119    17.31900   17.64600   37.28500
      C    C120    18.68700   17.79900   39.37300
      N    N121    18.84100   23.01300   38.01900
      C    C122    19.55700   24.23500   37.67000
      C    C123    20.26600   24.83200   38.86100
      O    O124    21.33700   25.40600   38.71700
      C    C125    18.57400   25.29600   37.17600
      C    C126    18.55600   25.69700   35.71600
      C    C127    19.21200   24.69200   34.84700
      C    C128    17.12100   26.01400   35.27100
      N    N129    19.64500   24.74500   40.03100
      C    C130    20.22900   25.30600   41.23400
      C    C131    21.45300   24.51600   41.72500
      O    O132    22.23900   25.02400   42.50900
      C    C133    19.16000   25.49300   42.32200
      O    O134    18.64400   24.27300   42.84000
      N    N135    21.63200   23.29200   41.22400
      C    C136    22.80100   22.48900   41.52500
      C    C137    23.93200   22.81400   40.57400
      O    O138    25.01900   22.25800   40.68800
      C    C139    22.45800   20.99100   41.38000
      C    C140    21.39300   20.51500   42.34600
      C    C141    21.79800   20.66000   43.78900
      O    O142    23.00900   20.68700   44.06900
      O    O143    20.90200   20.73100   44.65300
      N    N144    23.67100   23.66600   39.58100
      C    C145    24.71100   24.03000   38.63800
      C    C146    24.92800   23.05200   37.51200
      O    O147    25.90900   23.14500   36.75800
      N    N148    23.99800   22.11400   37.36200
      C    C149    24.10600   21.16100   36.28000
      C    C150    23.91800   21.84200   34.93100
      O    O151    23.08000   22.73600   34.77400
      C    C152    23.10600   20.03600   36.44400
      C    C153    23.21300   19.25700   37.77100
      C    C154    22.17300   18.22600   37.78300
      C    C155    24.54500   18.58500   37.94300
      N    N156    24.68100   21.37400   33.95700
      C    C157    24.53500   21.83800   32.59000
      C    C158    23.31200   21.13800   32.01800
      O    O159    22.76000   20.22200   32.64800
      C    C160    25.75000   21.42900   31.75800
      O    O161    25.76900   19.99900   31.58900
      C    C162    27.04100   21.73600   32.49700
      N    N163    22.91800   21.54800   30.82500
      C    C164    21.80800   20.92000   30.11900
      C    C165    22.07400   19.44200   29.86500
      O    O166    21.15600   18.62900   29.87300
      C    C167    21.56300   21.62100   28.79700
      C    C168    21.01200   23.01700   28.96900
      O    O169    20.57100   23.40600   30.05400
      N    N170    21.03300   23.77500   27.89800
      N    N171    23.33400   19.08500   29.61100
      C    C172    23.64900   17.70500   29.28600
      C    C173    23.53700   16.83300   30.53200
      O    O174    23.04100   15.72800   30.47800
      C    C175    25.06100   17.59900   28.69200
      C    C176    25.52000   16.14900   28.46000
      N    N177    23.95800   17.35800   31.65500
      C    C178    23.85900   16.63600   32.91100
      C    C179    22.40800   16.45200   33.35100
      O    O180    22.05500   15.41800   33.92500
      C    C181    24.59400   17.41400   34.00400
      C    C182    26.11100   17.19800   33.95300
      C    C183    26.87400   18.19900   34.78600
      O    O184    26.50600   19.35600   34.82900
      N    N185    27.92700   17.74000   35.48300
      N    N186    21.60100   17.49100   33.12200
      C    C187    20.16800   17.47300   33.43900
      C    C188    19.49700   16.42600   32.57700
      O    O189    18.72700   15.57500   33.07000
      C    C190    19.54400   18.85800   33.20700
      C    C191    20.01700   19.80000   34.32700
      C    C192    18.03700   18.76800   33.17600
      C    C193    19.61800   21.28400   34.21400
      N    N194    19.84300   16.45100   31.29600
      C    C195    19.26100   15.52800   30.33600
      C    C196    19.57700   14.09200   30.74700
      O    O197    18.76100   13.20500   30.58900
      C    C198    19.80300   15.79600   28.96000
      N    N199    20.76500   13.88700   31.29100
      C    C200    21.21100   12.55300   31.69000
      C    C201    20.42200   12.05700   32.89800
      O    O202    20.09500   10.88300   33.00100
      C    C203    22.70600   12.56200   31.99100
      C    C204    23.55200   12.54300   30.72300
      O    O205    24.78300   12.81300   30.81500
      O    O206    23.06600   12.28900   29.58500
      N    N207    20.05100   12.96900   33.77700
      C    C208    19.19700   12.61000   34.91600
      C    C209    17.69200   12.47700   34.59700
      O    O210    16.98600   11.73300   35.26000
      C    C211    19.42900   13.62400   36.00300
      C    C212    20.86800   13.54000   36.54200
      C    C213    21.34800   14.82500   37.14400
      N    N214    22.62300   14.69200   37.85700
      C    C215    23.79300   14.51900   37.27500
      N    N216    23.88600   14.45600   35.95800
      N    N217    24.89400   14.42900   38.02600
      N    N218    17.22000   13.18000   33.57700
      C    C219    15.80800   13.18300   33.19800
      C    C220    15.48800   12.23300   32.05400
      O    O221    14.32300   12.14100   31.59500
      C    C222    15.38300   14.60400   32.82700
      C    C223    15.52200   15.57300   33.97000
     Se   Se224    14.79300   17.37900   33.59500
      C    C225    12.96500   16.89600   33.29700
      N    N226    16.50900   11.52900   31.58200
      C    C227    16.37800   10.68500   30.40300
      C    C228    15.75700   11.47100   29.24600
      O    O229    14.82500   11.00100   28.58300
      C    C230    15.55000    9.42900   30.70800
      C    C231    16.26200    8.45100   31.60600
      C    C232    17.26200    7.64800   31.09800
      C    C233    15.96400    8.36800   32.95000
      C    C234    17.93100    6.77000   31.89900
      C    C235    16.64500    7.49700   33.76200
      C    C236    17.63500    6.70400   33.23700
      N    N237    16.29900   12.65600   28.98900
      C    C238    15.86700   13.44500   27.84800
      C    C239    17.04600   13.71500   26.92000
      O    O240    18.18100   13.47500   27.28000
      C    C241    15.29100   14.76900   28.31500
      C    C242    14.10300   14.74800   29.28200
      C    C243    13.82200   16.14700   29.77700
      C    C244    12.85300   14.16800   28.65000
      N    N245    16.77600   14.22700   25.72100
      C    C246    17.85300   14.72400   24.87200
      C    C247    18.26200   16.08200   25.39200
      O    O248    17.42900   16.82900   25.92400
      C    C249    17.39700   14.83900   23.42700
      N    N250    19.53700   16.40700   25.24400
      C    C251    20.02700   17.69300   25.65400
      C    C252    19.25200   18.83300   24.98600
      O    O253    19.00100   19.85200   25.63300
      C    C254    21.51900   17.82500   25.35400
      C    C255    22.08900   19.14300   25.84100
      C    C256    23.56900   19.24500   25.59700
      O    O257    24.16600   18.23000   25.16200
      O    O258    24.12200   20.33400   25.84700
      N    N259    18.87500   18.66900   23.71500
      C    C260    18.16900   19.74400   22.98600
      C    C261    16.78500   20.00600   23.60700
      O    O262    16.33200   21.13500   23.63400
      C    C263    18.01700   19.43700   21.50400
      C    C264    18.16700   20.67400   20.58100
      N    N265    16.13400   18.95800   24.10500
      C    C266    14.87100   19.09600   24.81100
      C    C267    15.04500   19.91100   26.12000
      O    O268    14.28000   20.82600   26.41600
      C    C269    14.31400   17.71500   25.14400
      O    O270    14.16100   16.92600   23.94900
      C    C271    12.90500   17.82100   25.72100
      N    N272    16.07000   19.59400   26.88700
      C    C273    16.33600   20.31800   28.11900
      C    C274    16.60700   21.77800   27.80700
      O    O275    16.06300   22.67200   28.44900
      C    C276    17.52400   19.68300   28.89100
      C    C277    17.94500   20.56300   30.07100
      C    C278    17.16900   18.30000   29.35900
      N    N279    17.42500   22.03700   26.79700
      C    C280    17.68200   23.40700   26.37000
      C    C281    16.39500   24.15100   26.03900
      O    O282    16.23400   25.32600   26.39300
      C    C283    18.66000   23.42500   25.16700
      C    C284    19.04100   24.82900   24.63100
      C    C285    19.96400   24.69400   23.38400
      C    C286    20.19600   26.03800   22.70700
      N    N287    18.89100   26.70000   22.42200
      N    N288    15.48500   23.47400   25.35200
      C    C289    14.22600   24.07400   24.98400
      C    C290    13.36600   24.28100   26.21000
      O    O291    12.69500   25.30300   26.29400
      C    C292    13.48200   23.23800   23.93400
      C    C293    14.15900   23.29200   22.55100
      O    O294    14.92100   24.22900   22.23200
      N    N295    13.86700   22.29400   21.71900
      N    N296    13.40100   23.33300   27.15500
      C    C297    12.61000   23.44000   28.37000
      C    C298    13.16600   24.58400   29.23700
      O    O299    12.39200   25.25600   29.89700
      C    C300    12.59400   22.13500   29.20200
      C    C301    11.74300   20.99900   28.67900
      C    C302    10.84600   21.16700   27.64700
      C    C303    11.84200   19.74900   29.24400
      C    C304    10.08800   20.10500   27.18900
      C    C305    11.09900   18.70200   28.79800
      C    C306    10.23500   18.87700   27.77700
      O    O307     9.50800   17.80600   27.37600
      N    N308    14.48300   24.80500   29.24400
      C    C309    15.04900   25.88100   30.05800
      C    C310    14.61700   27.23000   29.46900
      O    O311    14.20800   28.14900   30.18300
      C    C312    16.57800   25.81500   30.13200
      C    C313    17.16700   27.11700   30.78500
      C    C314    16.99900   24.61000   30.86200
      N    N315    14.66500   27.32400   28.14900
      C    C316    14.22500   28.53400   27.47500
      C    C317    12.78000   28.90300   27.81500
      O    O318    12.48400   30.06500   28.15000
      C    C319    14.41100   28.40200   25.96200
      O    O320    13.98600   29.59400   25.35300
      N    N321    11.90000   27.91300   27.77100
      C    C322    10.47500   28.11900   28.07700
      C    C323    10.27400   28.53600   29.52100
      O    O324     9.41000   29.33900   29.83100
      C    C325     9.69700   26.83600   27.88300
      C    C326     9.39600   26.50800   26.45500
      C    C327     8.42600   25.35500   26.31900
      N    N328     8.87600   24.46900   25.26400
      C    C329     8.48400   23.21100   25.10500
      N    N330     7.59500   22.66300   25.93200
      N    N331     8.97900   22.50000   24.09000
      N    N332    11.05000   27.91700   30.40400
      C    C333    10.94200   28.13800   31.82600
      C    C334    11.35700   29.58600   32.14700
      O    O335    10.62600   30.28100   32.83200
      C    C336    11.83000   27.14800   32.54900
      C    C337    12.00500   27.34000   34.05000
      C    C338    10.62900   27.32500   34.71000
      C    C339    12.88200   26.22000   34.59300
      N    N340    12.49700   30.02300   31.61600
      C    C341    12.94700   31.40000   31.74400
      C    C342    11.91700   32.40100   31.19300
      O    O343    11.59500   33.39100   31.84600
      C    C344    14.31200   31.59500   31.06400
      C    C345    15.52900   30.90300   31.70000
      C    C346    16.75500   31.10400   30.80700
      C    C347    15.83200   31.41800   33.03900
      N    N348    11.36500   32.11300   30.02400
      C    C349    10.34900   32.97200   29.41300
      C    C350     9.12800   33.10200   30.32300
      O    O351     8.65400   34.19600   30.59500
      C    C352     9.92800   32.39700   28.07800
      N    N353     8.61700   31.97200   30.78200
      C    C354     7.48600   31.94000   31.70100
      C    C355     7.72900   32.85900   32.89900
      O    O356     6.89400   33.67300   33.26200
      C    C357     7.30200   30.48600   32.12900
      C    C358     6.15700   30.16900   33.06300
      C    C359     5.95300   28.64800   33.11900
      C    C360     5.10200   28.12400   32.00800
      N    N361     4.84500   26.66300   32.16600
      N    N362     8.90600   32.73000   33.49700
      C    C363     9.24600   33.44300   34.70700
      C    C364     9.67800   34.87900   34.47300
      O    O365     9.89100   35.61300   35.42100
      C    C366    10.35000   32.67600   35.42900
      C    C367    10.03700   31.71600   36.58200
      C    C368     8.61000   31.39200   36.70500
      C    C369    10.86600   30.48900   36.51200
      N    N370     9.84800   35.27600   33.22700
      C    C371    10.31700   36.61300   32.90500
      C    C372    11.77000   36.83600   33.28300
      O    O373    12.11800   37.86500   33.81300
      N    N374    12.62100   35.85500   33.01500
      C    C375    14.03300   35.99000   33.29300
      C    C376    14.83800   35.72600   32.01700
      O    O377    14.33700   35.09200   31.08200
      C    C378    14.41900   35.00400   34.37700
      C    C379    13.86300   35.39000   35.73800
     Se   Se380    13.94800   33.89400   37.00000
      C    C381    13.81700   32.52400   35.82600
      N    N382    16.07100   36.21000   31.97200
      C    C383    16.89600   36.03200   30.76300
      C    C384    18.02500   35.03000   30.94000
      O    O385    18.60000   34.55000   29.96700
      C    C386    17.49800   37.35600   30.31700
      C    C387    16.50100   38.50500   30.25100
      C    C388    17.10100   39.73700   29.60300
      O    O389    17.16900   39.77000   28.34800
      O    O390    17.52600   40.65700   30.34900
      N    N391    18.37000   34.73100   32.18500
      C    C392    19.57900   33.97300   32.44100
      C    C393    19.38600   32.90500   33.47800
      O    O394    18.58800   33.03000   34.40900
      C    C395    20.69400   34.93100   32.88000
      C    C396    21.16000   35.81200   31.74300
      C    C397    22.12100   36.89100   32.16600
      N    N398    21.54200   37.82400   33.11900
      C    C399    20.84300   38.91200   32.80100
      N    N400    20.58500   39.22400   31.53700
      N    N401    20.41400   39.71200   33.75400
      N    N402    20.12500   31.82600   33.25900
      C    C403    20.16500   30.67800   34.12000
      C    C404    20.38000   31.01300   35.57300
      O    O405    19.77500   30.43300   36.46400
      C    C406    21.37800   29.85700   33.68500
      C    C407    21.16500   28.41200   33.65100
      C    C408    22.35100   27.70900   33.03600
      N    N409    22.28600   26.27200   33.15300
      C    C410    21.64900   25.48800   32.30700
      N    N411    21.03800   25.99500   31.26100
      N    N412    21.66900   24.18200   32.49600
      N    N413    21.29300   31.93600   35.82700
      C    C414    21.60500   32.28900   37.19000
      C    C415    20.39100   32.88700   37.89900
      O    O416    20.21800   32.65700   39.07500
      C    C417    22.77500   33.27500   37.23500
      O    O418    24.02500   32.58700   36.99800
      C    C419    22.94400   33.80800   38.59800
      N    N420    19.56700   33.66400   37.19500
      C    C421    18.36600   34.24100   37.78900
      C    C422    17.40600   33.14500   38.21500
      O    O423    16.84100   33.23900   39.26100
      C    C424    17.65400   35.19800   36.82700
      C    C425    18.47500   36.46700   36.51500
      C    C426    17.91600   37.27300   35.36000
      O    O427    17.50900   36.73100   34.34300
      N    N428    17.87200   38.57200   35.53900
      N    N429    17.22000   32.11700   37.37400
      C    C430    16.35000   31.00900   37.70200
      C    C431    16.93100   30.23600   38.84600
      O    O432    16.22400   29.81200   39.73900
      C    C433    16.21900   30.07500   36.51600
      N    N434    18.24300   30.02500   38.81800
      C    C435    18.85500   29.34700   39.95100
      C    C436    18.67200   30.09100   41.27800
      O    O437    18.42100   29.46900   42.33200
      C    C438    20.35800   29.01200   39.65500
      N    N439    18.76500   31.41800   41.25800
      C    C440    18.61000   32.18400   42.47200
      C    C441    17.15000   32.14000   42.90800
      O    O442    16.83700   31.99200   44.07600
      C    C443    19.06200   33.64600   42.28800
      C    C444    18.66200   34.49000   43.48800
      C    C445    20.56300   33.69500   42.12700
      N    N446    16.23900   32.20500   41.95300
      C    C447    14.82700   32.09300   42.30000
      C    C448    14.48200   30.72600   42.92300
      O    O449    13.71400   30.65000   43.86300
      C    C450    13.99500   32.36100   41.05400
      C    C451    12.50000   32.21300   41.24700
      C    C452    11.85200   31.05900   40.83600
      C    C453    11.74400   33.26700   41.73400
      C    C454    10.47800   30.92700   40.96800
      C    C455    10.36200   33.16200   41.84400
      C    C456     9.73100   31.99000   41.46500
      N    N457    15.03900   29.65300   42.39200
      C    C458    14.87800   28.31000   42.97400
      C    C459    15.35600   28.27000   44.44200
      O    O460    14.66500   27.75100   45.35400
      C    C461    15.66500   27.30100   42.15500
      N    N462    16.52600   28.84300   44.68300
      C    C463    17.12500   28.83700   46.02000
      C    C464    16.24800   29.55200   47.05600
      O    O465    15.99300   29.03700   48.17400
      C    C466    18.50400   29.47200   45.95700
      O    O467    19.31900   28.74500   45.03900
      C    C468    19.25600   29.29500   47.24900
      N    N469    15.76800   30.72600   46.67300
      C    C470    14.94800   31.54800   47.54200
      C    C471    13.63100   30.86900   47.79500
      O    O472    13.07600   30.97800   48.89500
      C    C473    14.66900   32.89700   46.89700
      C    C474    15.91300   33.70200   46.60000
      C    C475    15.59700   35.13300   46.23800
      O    O476    14.79500   35.36300   45.29600
      O    O477    16.14800   36.02200   46.91000
      N    N478    13.12900   30.16500   46.78000
      C    C479    11.89500   29.39800   46.90800
      C    C480    11.98800   28.22600   47.89800
      O    O481    11.05900   28.00300   48.68300
      C    C482    11.49200   28.84000   45.55500
      C    C483    10.01400   28.81900   45.19000
      C    C484     9.79200   27.74000   44.15200
      C    C485     9.11800   28.59700   46.39700
      N    N486    13.09000   27.47700   47.84800
      C    C487    13.31700   26.34800   48.75200
      C    C488    13.19000   26.76100   50.21100
      O    O489    12.69600   26.00500   51.02500
      C    C490    14.71600   25.75300   48.56200
      C    C491    14.90200   24.89000   47.31900
      C    C492    16.40400   24.60200   47.12100
      C    C493    16.69800   23.57100   46.02400
      N    N494    18.13500   23.11000   46.08500
      N    N495    13.62400   27.96800   50.54000
      C    C496    13.59500   28.40800   51.92900
      C    C497    12.33300   29.22400   52.22500
      O    O498    11.79200   29.13300   53.32700
      C    C499    14.87900   29.17000   52.31000
      C    C500    15.88900   28.32600   53.16700
      N    N501    11.84400   29.98700   51.25200
      C    C502    10.66100   30.83100   51.48400
      C    C503     9.37500   30.00400   51.54700
      O    O504     8.42100   30.36200   52.24000
      C    C505    10.55400   31.96900   50.44800
      O    O506    10.01300   31.54200   49.20800
      N    N507     9.35400   28.88900   50.83500
      C    C508     8.17700   28.03900   50.81900
      C    C509     8.59200   26.59100   50.55000
      O    O510     8.44400   26.09300   49.44100
      C    C511     7.17700   28.53700   49.78000
      C    C512     6.42300   29.80000   50.21700
      C    C513     5.23400   30.15900   49.34700
      N    N514     4.14700   29.19700   49.48200
      C    C515     3.20900   29.24400   50.41200
      N    N516     3.20600   30.20700   51.32300
      N    N517     2.26200   28.31500   50.42400
      N    N518     9.14800   25.94500   51.57200
      C    C519     9.60800   24.55000   51.46700
      C    C520     8.47600   23.56600   51.15500
      O    O521     7.38100   23.74000   51.67800
      C    C522    10.20600   24.26400   52.85400
      C    C523    10.46200   25.62000   53.46700
      C    C524     9.41600   26.52800   52.90400
      N    N525     8.72700   22.56900   50.30400
      C    C526     7.69600   21.57700   49.94300
      C    C527     7.13700   20.75800   51.12500
      O    O528     7.88600   20.20900   51.93500
      C    C529     8.42100   20.66200   48.95600
      C    C530     9.89200   20.92000   49.18600
      C    C531     9.99700   22.34400   49.58900
