# CIF file generated by openbabel 2.3.2, see http://openbabel.sf.net
data_I
_chemical_name_common '../proteins/pdb/1ZLK.pdb'
_cell_length_a 142.397
_cell_length_b 58.791
_cell_length_c 82.933
_cell_angle_alpha 90
_cell_angle_beta 125.5
_cell_angle_gamma 90
_space_group_name_H-M_alt 'C 1 2 1'
_space_group_name_Hall 'C 2y'
loop_
    _symmetry_equiv_pos_as_xyz
    'x,y,z'
    '-x,y,-z'
    '1/2+x,1/2+y,z'
    '1/2-x,1/2+y,-z'
loop_
    _atom_site_type_symbol
    _atom_site_label
    _atom_site_Cartn_x
    _atom_site_Cartn_y
    _atom_site_Cartn_z
      P    P1   -11.22600  -16.25400   -2.94400
      O    O2   -11.88400  -17.58500   -2.93200
      O    O3   -10.15000  -15.92300   -3.91000
      O    O4   -12.32300  -15.08300   -2.95200
      C    C5   -13.45300  -15.10000   -2.06000
      C    C6   -13.21400  -14.31500   -0.77100
      O    O7   -12.69400  -15.21800    0.24800
      C    C8   -12.21100  -13.16100   -0.85300
      O    O9   -12.57100  -12.08300    0.02800
      C    C10   -10.91400  -13.84000   -0.42700
      C    C11   -11.41000  -14.78400    0.66700
      N    N12   -10.56200  -15.95300    0.90800
      C    C13    -9.45000  -16.35000    0.19700
      N    N14    -8.90000  -17.44200    0.65600
      C    C15    -9.69000  -17.79500    1.74600
      C    C16    -9.58200  -18.89400    2.64400
      O    O17    -8.73900  -19.80500    2.65800
      N    N18   -10.59100  -18.87400    3.60700
      C    C19   -11.57800  -17.91500    3.69500
      N    N20   -12.46300  -18.06500    4.69500
      N    N21   -11.69000  -16.88200    2.86100
      C    C22   -10.71700  -16.88600    1.91300
      P    P23   -11.86300  -10.64300   -0.08800
      O    O24   -12.92600   -9.63900   -0.30000
      O    O25   -10.73800  -10.74700   -1.04800
      O    O26   -11.24600  -10.33600    1.35800
      C    C27   -10.60500  -11.33200    2.13200
      C    C28   -11.25500  -11.43900    3.49700
      O    O29   -11.22500  -12.82900    3.92000
      C    C30   -10.54900  -10.65300    4.59600
      O    O31   -11.46900  -10.21200    5.60000
      C    C32    -9.57500  -11.69400    5.12500
      C    C33   -10.44600  -12.94400    5.09500
      N    N34    -9.67500  -14.23100    5.08000
      C    C35    -9.94300  -15.22400    6.04500
      O    O36   -10.82200  -15.02900    6.89900
      N    N37    -9.22800  -16.38500    6.02300
      C    C38    -8.28400  -16.57300    5.09300
      N    N39    -7.60900  -17.73400    5.11400
      C    C40    -7.99700  -15.57200    4.10400
      C    C41    -8.70600  -14.43000    4.13400
      P    P42   -11.01800   -9.21000    6.77200
      O    O43   -12.22200   -8.48800    7.24700
      O    O44    -9.85100   -8.43600    6.28900
      O    O45   -10.52700  -10.18400    7.94900
      C    C46   -10.41700   -9.68100    9.28400
      C    C47   -10.30600  -10.79600   10.31200
      O    O48    -9.90400  -12.02300    9.64800
      C    C49    -9.25600  -10.54900   11.39300
      O    O50    -9.56200  -11.20400   12.62200
      C    C51    -8.02100  -11.15100   10.75200
      C    C52    -8.60000  -12.37900   10.06300
      N    N53    -7.79100  -12.81100    8.89100
      C    C54    -7.38800  -14.13100    8.79300
      O    O55    -7.67100  -14.98900    9.61600
      N    N56    -6.64200  -14.42200    7.67600
      C    C57    -6.26000  -13.53100    6.68500
      O    O58    -5.58600  -13.89300    5.72300
      C    C59    -6.70900  -12.16400    6.85300
      C    C60    -6.36500  -11.10600    5.84300
      C    C61    -7.44100  -11.87400    7.93600
      P    P62    -9.82400  -10.36300   13.95900
      O    O63   -10.70700  -11.18900   14.81300
      O    O64   -10.22500   -8.98900   13.57500
      O    O65    -8.41100  -10.25900   14.70200
      C    C66    -7.21800  -10.74800   14.12100
      C    C67    -6.99300  -12.19500   14.51500
      O    O68    -6.83300  -12.99600   13.31700
      C    C69    -5.73800  -12.42400   15.35000
      O    O70    -5.90500  -13.46900   16.30600
      C    C71    -4.69800  -12.77000   14.29700
      C    C72    -5.51500  -13.49900   13.24000
      N    N73    -4.98700  -13.28600   11.86800
      C    C74    -4.49500  -14.36000   11.16000
      O    O75    -4.47600  -15.49900   11.59200
      N    N76    -4.02900  -14.05400    9.90800
      C    C77    -4.00000  -12.80300    9.32000
      O    O78    -3.55800  -12.62800    8.19300
      C    C79    -4.52500  -11.72400   10.11500
      C    C80    -4.54600  -10.32500    9.57100
      C    C81    -4.98400  -12.01300   11.33800
      P    P82    -4.89900  -13.53200   17.54900
      O    O83    -5.39600  -14.53700   18.51900
      O    O84    -4.64400  -12.13100   17.96600
      O    O85    -3.56600  -14.11000   16.88900
      C    C86    -3.53400  -15.46000   16.45200
      C    C87    -2.18500  -15.78900   15.84800
      O    O88    -2.08300  -15.20000   14.52500
      C    C89    -0.99600  -15.24500   16.63100
      O    O90     0.01700  -16.21700   16.71700
      C    C91    -0.54800  -14.04900   15.80300
      C    C92    -0.82200  -14.58000   14.41100
      N    N93    -0.86600  -13.55000   13.35000
      C    C94    -0.19600  -13.79200   12.17100
      O    O95     0.43500  -14.81000   11.95400
      N    N96    -0.28800  -12.78800   11.24500
      C    C97    -0.97100  -11.59500   11.38400
      O    O98    -0.99100  -10.75700   10.48900
      C    C99    -1.65100  -11.40400   12.64400
      C    C100    -2.42500  -10.14400   12.91100
      C    C101    -1.56500  -12.37900   13.55800
      P    P102     1.26200  -15.95700   17.68200
      O    O103     1.25000  -17.01600   18.71700
      O    O104     1.26400  -14.52800   18.07700
      O    O105     2.52500  -16.20000   16.74200
      C    C106     2.45600  -15.80200   15.40900
      C    C107     3.49000  -16.56300   14.62800
      O    O108     3.42500  -16.08000   13.27500
      C    C109     4.92200  -16.32200   15.06200
      O    O110     5.79100  -17.30600   14.57200
      C    C111     5.18800  -14.98500   14.39400
      C    C112     4.46600  -15.15700   13.06700
      N    N113     3.87600  -13.92700   12.58500
      C    C114     3.08500  -13.04900   13.27900
      N    N115     2.72200  -12.02900   12.56100
      C    C116     3.31000  -12.25400   11.32500
      C    C117     3.26900  -11.48800   10.14200
      O    O118     2.68500  -10.41400    9.94900
      N    N119     4.00800  -12.08200    9.12000
      C    C120     4.69500  -13.27000    9.23000
      N    N121     5.35200  -13.69200    8.13900
      N    N122     4.74000  -13.99400   10.33600
      C    C123     4.02500  -13.42200   11.33000
      P    P124     7.36400  -17.00400   14.61100
      O    O125     8.07200  -18.31100   14.58300
      O    O126     7.63700  -16.02100   15.68800
      O    O127     7.69100  -16.28000   13.22500
      C    C128     8.96200  -16.54500   12.61800
      C    C129     9.18600  -15.56800   11.48300
      O    O130     8.06100  -14.64000   11.41500
      C    C131    10.44900  -14.70700   11.60300
      O    O132    11.30900  -14.96000   10.52500
      C    C133     9.93500  -13.27800   11.55600
      C    C134     8.59600  -13.46300   10.85400
      N    N135     7.67700  -12.35300   11.03300
      C    C136     7.12200  -11.92800   12.20900
      N    N137     6.34100  -10.89700   12.06100
      C    C138     6.38600  -10.62300   10.70100
      C    C139     5.73500   -9.61600    9.95600
      O    O140     4.96200   -8.73800   10.36800
      N    N141     6.05100   -9.69700    8.60300
      C    C142     6.89100  -10.63200    8.05100
      N    N143     7.08200  -10.55600    6.72900
      N    N144     7.50400  -11.57800    8.73900
      C    C145     7.20600  -11.51200   10.05400
      P    P146    12.86500  -14.62300   10.62700
      O    O147    13.58500  -15.90900   10.78100
      O    O148    13.01900  -13.53700   11.62300
      O    O149    13.22200  -14.01900    9.19100
      C    C150    12.82200  -14.68100    8.00400
      C    C151    12.83700  -13.72600    6.82700
      O    O152    11.68100  -12.85000    6.88300
      C    C153    14.05100  -12.81100    6.76700
      O    O154    14.50700  -12.73900    5.42800
      C    C155    13.52200  -11.47700    7.29100
      C    C156    12.07400  -11.49300    6.82500
      N    N157    11.13300  -10.78100    7.67900
      C    C158    10.69700  -11.23700    8.89400
      N    N159     9.84100  -10.44300    9.47500
      C    C160     9.69000   -9.39400    8.58800
      C    C161     8.87700   -8.24500    8.70100
      O    O162     8.12100   -7.93500    9.62800
      N    N163     8.99000   -7.41900    7.59100
      C    C164     9.80600   -7.68800    6.51500
      N    N165     9.78600   -6.77000    5.54000
      N    N166    10.58000   -8.76900    6.39100
      C    C167    10.47300   -9.58200    7.46900
      P    P168    16.00700  -12.31700    5.07800
      O    O169    16.45500  -13.19700    3.97800
      O    O170    16.80000  -12.25200    6.32600
      O    O171    15.80100  -10.82600    4.53000
      C    C172    14.49300  -10.36900    4.18900
      C    C173    14.52100   -9.01300    3.50900
      O    O174    13.61400   -8.10300    4.18400
      C    C175    15.84200   -8.26800    3.52500
      O    O176    15.81800   -7.33900    2.44700
      C    C177    15.79200   -7.61000    4.90100
      C    C178    14.34300   -7.13500    4.92900
      N    N179    13.68700   -7.04200    6.23300
      C    C180    13.75200   -7.95100    7.26200
      N    N181    13.02800   -7.61100    8.29000
      C    C182    12.44500   -6.40600    7.92300
      C    C183    11.56100   -5.56400    8.63600
      O    O184    11.10500   -5.72300    9.77500
      N    N185    11.19300   -4.43800    7.90600
      C    C186    11.64600   -4.16200    6.64400
      N    N187    11.18700   -3.02800    6.10100
      N    N188    12.47400   -4.94000    5.96000
      C    C189    12.83400   -6.04400    6.65800
      P    P190    17.13600   -6.73400    1.76900
      O    O191    16.82100   -6.48700    0.34400
      O    O192    18.30500   -7.57100    2.13100
      O    O193    17.26400   -5.31800    2.50100
      C    C194    16.11300   -4.49600    2.69400
      C    C195    16.44700   -3.36500    3.64300
      O    O196    15.76000   -3.55400    4.91300
      C    C197    17.93000   -3.29000    3.98700
      O    O198    18.34900   -1.94700    4.11000
      C    C199    17.97800   -4.01600    5.32000
      C    C200    16.72000   -3.43700    5.94500
      N    N201    16.28200   -4.10500    7.16600
      C    C202    16.63100   -5.35200    7.60400
      N    N203    16.08700   -5.68000    8.75000
      C    C204    15.33400   -4.56800    9.08900
      C    C205    14.51400   -4.28100   10.19600
      N    N206    14.31700   -5.14000   11.20100
      N    N207    13.90200   -3.07800   10.22800
      C    C208    14.10500   -2.22300    9.22100
      N    N209    14.85500   -2.38200    8.13100
      C    C210    15.44600   -3.58600    8.12600
      P    P211    19.73700   -1.48200    3.47300
      O    O212    19.40800   -0.32800    2.60400
      O    O213    20.43500   -2.68700    2.95700
      O    O214    20.60200   -0.94400    4.70800
      C    C215    20.22500   -1.21500    6.05200
      C    C216    19.37500   -0.08800    6.60600
      O    O217    18.36400   -0.64500    7.48500
      C    C218    20.15500    0.92700    7.43200
      O    O219    19.65800    2.24900    7.22900
      C    C220    19.94500    0.44200    8.86000
      C    C221    18.55100   -0.17100    8.80300
      N    N222    18.35500   -1.30300    9.75400
      C    C223    17.16700   -1.37900   10.48400
      O    O224    16.29800   -0.50700   10.32100
      N    N225    17.00800   -2.41400   11.34500
      C    C226    17.96500   -3.33200   11.48400
      N    N227    17.75200   -4.32700   12.34700
      C    C228    19.18300   -3.27300   10.75000
      C    C229    19.33400   -2.25200    9.90200
      P    P230    20.40800    3.50000    7.89400
      O    O231    20.28100    4.65600    6.96400
      O    O232    21.74200    3.02800    8.35900
      O    O233    19.51200    3.78100    9.18900
      C    C234    18.17400    4.24800    9.06400
      C    C235    17.76000    4.93400   10.34400
      O    O236    17.54000    3.94200   11.37500
      C    C237    18.82700    5.84200   10.91800
      O    O238    18.23400    6.80100   11.75100
      C    C239    19.68900    4.85800   11.69500
      C    C240    18.61400    3.96300   12.30000
      N    N241    19.04500    2.56300   12.56900
      C    C242    18.20000    1.73500   13.27500
      O    O243    17.10700    2.08400   13.69000
      N    N244    18.67000    0.46500   13.47600
      C    C245    19.88400   -0.04200   13.05900
      O    O246    20.21600   -1.20500   13.29800
      C    C247    20.72100    0.88200   12.33100
      C    C248    22.07100    0.46700   11.81800
      C    C249    20.27000    2.12000   12.12500
      P    P250    19.16300    7.69100   12.69000
      O    O251    18.49800    9.00100   12.78800
      O    O252    20.55700    7.60000   12.19700
      O    O253    19.06400    6.94600   14.10000
      C    C254    17.78900    6.74500   14.68500
      C    C255    17.91900    5.98600   15.98600
      O    O256    18.49400    4.67500   15.72400
      C    C257    18.83500    6.64600   17.01400
      O    O258    18.29000    6.50700   18.30800
      C    C259    20.11000    5.83100   16.88300
      C    C260    19.49000    4.45500   16.69600
      N    N261    20.43500    3.41500   16.29200
      C    C262    21.49700    3.52500   15.43400
      N    N263    22.19000    2.41800   15.29000
      C    C264    21.54300    1.52600   16.11800
      C    C265    21.78600    0.17400   16.41600
      N    N266    22.78800   -0.52900   15.88100
      N    N267    20.95100   -0.42700   17.28800
      C    C268    19.95000    0.28800   17.82500
      N    N269    19.62400    1.56700   17.61600
      C    C270    20.46700    2.12600   16.74400
      P    P271    17.72900    7.74700   19.14500
      O    O272    16.48300    8.22900   18.53300
      O    O273    18.85000    8.65500   19.48200
      O    O274    17.31700    7.02700   20.49000
      C    C275    18.36500    6.75800   21.37300
      C    C276    18.46300    5.29200   21.71300
      O    O277    19.22300    4.59800   20.68800
      C    C278    19.19800    5.11300   23.02900
      O    O279    18.38900    4.40100   23.96700
      C    C280    20.48400    4.41400   22.60500
      C    C281    20.07200    3.69000   21.33800
      N    N282    21.21300    3.33300   20.50500
      C    C283    21.99500    4.15300   19.73900
      N    N284    22.98500    3.54100   19.11900
      C    C285    22.83900    2.23000   19.51200
      C    C286    23.56400    1.06400   19.20000
      N    N287    24.62400    1.06000   18.38100
      N    N288    23.15700   -0.10400   19.76200
      C    C289    22.09500   -0.09200   20.58200
      N    N290    21.33400    0.94400   20.94500
      C    C291    21.76100    2.08300   20.37000
      P    P292    18.56900    4.69000   25.53200
      O    O293    17.27800    4.54500   26.23900
      O    O294    19.34000    5.94600   25.61900
      O    O295    19.48200    3.47300   25.96000
      C    C296    19.81800    2.62800   24.94100
      C    C297    20.19500    1.29400   25.46600
      O    O298    21.14300    0.77500   24.51200
      C    C299    20.91200    1.35600   26.79100
      O    O300    20.79000    0.10400   27.49000
      C    C301    22.31800    1.72200   26.30500
      C    C302    22.45300    0.91500   25.01400
      N    N303    23.28200    1.51100   23.96500
      C    C304    23.25500    2.79800   23.51300
      N    N305    24.12600    3.04300   22.56000
      C    C306    24.75800    1.83400   22.37300
      C    C307    25.77900    1.43900   21.50100
      N    N308    26.34300    2.27400   20.62500
      N    N309    26.20100    0.16700   21.55800
      C    C310    25.62000   -0.64500   22.43600
      N    N311    24.64300   -0.38800   23.30600
      C    C312    24.25400    0.88400   23.22300
      P    P313    21.15000   -0.02300   29.04800
      O    O314    20.03700   -0.68200   29.74500
      O    O315    21.64700    1.29600   29.49800
      O    O316    22.38200   -1.02300   28.98200
      C    C317    23.26900   -0.81800   27.92000
      C    C318    24.34100   -1.86200   27.89900
      O    O319    25.12200   -1.69000   26.69200
      C    C320    25.32200   -1.77200   29.05200
      O    O321    25.81500   -3.07700   29.32700
      C    C322    26.35100   -0.79000   28.49900
      C    C323    26.36700   -1.09600   27.00200
      N    N324    26.53200    0.07900   26.14700
      C    C325    25.80400    1.24600   26.19000
      N    N326    26.17700    2.11800   25.29400
      C    C327    27.21500    1.49200   24.61500
      C    C328    28.00600    1.95200   23.53600
      O    O329    27.94700    3.04200   22.94900
      N    N330    28.94700    1.00900   23.14100
      C    C331    29.09600   -0.23000   23.72300
      N    N332    30.06600   -1.01700   23.21900
      N    N333    28.35800   -0.67300   24.73400
      C    C334    27.44400    0.23900   25.12800
      P    P335    27.03800   -3.38000   30.29600
      O    O336    27.00800   -4.83700   30.53800
      O    O337    26.98100   -2.44000   31.43000
      O    O338    28.29500   -3.01200   29.38700
      C    C339    28.54400   -3.75200   28.21000
      C    C340    30.01100   -4.10900   28.09500
      O    O341    30.63800   -3.19600   27.16200
      C    C342    30.83200   -3.98500   29.37000
      O    O343    31.95700   -4.87700   29.30500
      C    C344    31.21000   -2.50400   29.33400
      C    C345    31.48800   -2.29400   27.84600
      N    N346    31.21700   -0.93900   27.27200
      C    C347    31.80500   -0.61500   26.06700
      O    O348    32.54000   -1.36900   25.45900
      N    N349    31.50600    0.62700   25.57500
      C    C350    30.69000    1.56900   26.16600
      O    O351    30.49100    2.66300   25.63800
      C    C352    30.09600    1.16800   27.42700
      C    C353    29.18300    2.08900   28.18300
      C    C354    30.38300   -0.04800   27.91100
      P    P355    32.81000   -5.31200   30.59400
      O    O356    32.76100   -6.78600   30.67800
      O    O357    32.41700   -4.49300   31.76200
      O    O358    34.28300   -4.87400   30.17500
      C    C359    34.43700   -4.08800   29.01600
      C    C360    35.86700   -3.64000   28.86100
      O    O361    35.86100   -2.38300   28.13900
      C    C362    36.59600   -3.34300   30.16700
      O    O363    37.99500   -3.45500   29.93500
      C    C364    36.13500   -1.91800   30.42800
      C    C365    36.24600   -1.34200   29.01900
      N    N366    35.40600   -0.14200   28.75400
      C    C367    35.43900    0.44700   27.48500
      O    O368    36.15400   -0.03800   26.60500
      N    N369    34.68100    1.54000   27.24900
      C    C370    33.91900    2.04300   28.22100
      N    N371    33.18500    3.12800   27.94500
      C    C372    33.87200    1.46000   29.51900
      C    C373    34.62500    0.38100   29.74200
      P    P374    39.11500   -3.38800   31.07600
      O    O375    39.24500   -4.76200   31.62100
      O    O376    38.86600   -2.24600   31.98700
      O    O377    40.38600   -2.99000   30.18100
      C    C378    40.19900   -2.43600   28.86300
      C    C379    40.77900   -1.03600   28.70600
      O    O380    39.70300   -0.06700   28.51300
      C    C381    41.59200   -0.49500   29.88500
      O    O382    42.69700    0.26700   29.39900
      C    C383    40.56500    0.38000   30.58300
      C    C384    39.99600    1.04200   29.33900
      N    N385    38.81300    1.94100   29.55900
      C    C386    38.56600    2.96200   28.63700
      O    O387    39.31200    3.07200   27.65900
      N    N388    37.51000    3.79300   28.83000
      C    C389    36.72300    3.64300   29.89400
      N    N390    35.69700    4.48600   30.04000
      C    C391    36.95900    2.61800   30.85600
      C    C392    38.00500    1.80100   30.65300
      P    P393    43.84400    0.81600   30.37400
      O    O394    44.69400   -0.33600   30.74700
      O    O395    43.23700    1.63900   31.44100
      O    O396    44.68400    1.80500   29.43700
      C    C397    44.14600    2.29900   28.21700
      C    C398    43.70300    3.75000   28.33900
      O    O399    42.35400    3.82300   28.88200
      C    C400    44.55900    4.63800   29.24800
      O    O401    45.03100    5.77100   28.53200
      C    C402    43.60000    5.05500   30.35600
      C    C403    42.27300    5.02700   29.61300
      N    N404    41.06900    5.06400   30.51000
      C    C405    40.14400    6.11400   30.41200
      O    O406    40.31600    7.00300   29.56800
      N    N407    39.07100    6.12400   31.24800
      C    C408    38.90700    5.15500   32.15600
      N    N409    37.83800    5.20600   32.96100
      C    C410    39.83800    4.08200   32.27600
      C    C411    40.89000    4.08100   31.44300
      P    P412    46.30800    6.58300   29.04800
      O    O413    47.48200    6.01900   28.34300
      O    O414    46.26000    6.64200   30.53300
      O    O415    46.05300    8.05300   28.47400
      C    C416    46.14000    9.18300   29.32400
      C    C417    44.95600   10.09500   29.08700
      O    O418    43.74400    9.44500   29.55500
      C    C419    45.04300   11.42800   29.81600
      O    O420    44.79200   12.49600   28.90900
      C    C421    43.97100   11.32900   30.89300
      C    C422    42.96200   10.38500   30.26200
      N    N423    42.10600    9.70800   31.28300
      C    C424    40.90500   10.28600   31.65400
      O    O425    40.47700   11.33000   31.18300
      N    N426    40.20700    9.58900   32.61600
      C    C427    40.57700    8.40100   33.22700
      O    O428    39.88000    7.85200   34.07400
      C    C429    41.84000    7.85600   32.79800
      C    C430    42.34800    6.57400   33.39800
      C    C431    42.53700    8.52700   31.86300
      P    P432    45.95700   13.52000   28.51600
      O    O433    45.84900   13.79100   27.06200
      O    O434    47.22300   12.99600   29.07300
      O    O435    45.57900   14.85000   29.32500
      C    C436    44.96100   14.77200   30.59800
      C    C437    43.76400   15.69400   30.65200
      O    O438    42.60100   15.00100   31.17500
      C    C439    43.94900   16.85800   31.59200
      O    O440    43.07800   17.89300   31.21500
      C    C441    43.57700   16.22800   32.92700
      C    C442    42.39300   15.35200   32.53200
      N    N443    42.24900   14.11200   33.29200
      C    C444    43.19900   13.15200   33.50500
      N    N445    42.77600   12.13700   34.22300
      C    C446    41.45600   12.45100   34.50100
      C    C447    40.44400   11.78000   35.22300
      N    N448    40.61700   10.60300   35.82400
      N    N449    39.23200   12.36600   35.30300
      C    C450    39.05000   13.54800   34.69700
      N    N451    39.92100   14.27300   33.99100
      C    C452    41.11600   13.66400   33.92900
      P    P453    43.23800   19.30800   31.92000
      O    O454    43.00500   20.34600   30.88900
      O    O455    44.51100   19.26700   32.67700
      O    O456    42.03800   19.31200   32.97700
      C    C457    40.73300   19.72300   32.59000
      C    C458    39.84400   19.91900   33.80600
      O    O459    39.70200   18.66300   34.52000
      C    C460    40.37000   20.89200   34.84800
      O    O461    39.28500   21.49800   35.52200
      C    C462    41.16100   19.98900   35.78100
      C    C463    40.24400   18.77600   35.82300
      N    N464    40.89800   17.51300   36.12900
      C    C465    42.07100   17.06000   35.60300
      N    N466    42.41500   15.87700   36.05100
      C    C467    41.40200   15.53400   36.93200
      C    C468    41.18100   14.40000   37.74000
      N    N469    42.01400   13.35900   37.78200
      N    N470    40.06900   14.37400   38.50300
      C    C471    39.23900   15.41800   38.45800
      N    N472    39.34300   16.53700   37.74100
      C    C473    40.45600   16.53400   36.99100
      P    P474    39.15800   23.08700   35.55600
      O    O475    37.92000   23.43400   34.81800
      O    O476    40.46000   23.64700   35.12800
      O    O477    38.96300   23.41600   37.11400
      C    C478    39.69000   22.70400   38.11600
      C    C479    38.74100   22.04600   39.10500
      O    O480    38.90200   20.60300   39.01400
      C    C481    38.97000   22.40300   40.57200
      O    O482    37.73200   22.51200   41.26900
      C    C483    39.82100   21.24900   41.09100
      C    C484    39.35400   20.06900   40.24500
      N    N485    40.43100   19.06500   39.96900
      C    C486    40.35400   17.77300   40.51400
      O    O487    39.39400   17.45400   41.22400
      N    N488    41.34200   16.88900   40.24900
      C    C489    42.37100   17.24900   39.48600
      N    N490    43.31600   16.33300   39.25900
      C    C491    42.47200   18.55600   38.91900
      C    C492    41.49100   19.42500   39.18600
