# CIF file generated by openbabel 2.3.2, see http://openbabel.sf.net
data_I
_chemical_name_common '../proteins/pdb/2CGQ.pdb'
_cell_length_a 45.222
_cell_length_b 45.222
_cell_length_c 78.152
_cell_angle_alpha 90
_cell_angle_beta 90
_cell_angle_gamma 120
_space_group_name_H-M_alt 'P 32 2 1'
_space_group_name_Hall 'P 32 2"'
loop_
    _symmetry_equiv_pos_as_xyz
    'x,y,z'
    '-y,x-y,2/3+z'
    '-x+y,-x,1/3+z'
    'y,x,-z'
    'x-y,-y,1/3-z'
    '-x,-x+y,2/3-z'
loop_
    _atom_site_type_symbol
    _atom_site_label
    _atom_site_Cartn_x
    _atom_site_Cartn_y
    _atom_site_Cartn_z
      N    N1     5.18600    5.16000   18.12800
      C    C2     3.78800    5.49000   18.59500
      C    C3     3.84600    6.35800   19.83300
      O    O4     3.56500    7.57500   19.77300
      C    C5     3.02900    4.26200   18.87600
      N    N6     4.21100    5.74100   20.96100
      C    C7     4.69700    6.51800   22.10100
      C    C8     5.93400    7.29600   21.64700
      O    O9     6.11500    8.48200   21.94100
      C    C10     5.04300    5.59700   23.26400
      C    C11     5.70800    6.30400   24.48400
      S    S12     6.59800    5.22900   25.66300
      C    C13     8.28300    5.29200   24.98000
      N    N14     6.81100    6.61600   20.94800
      C    C15     8.03700    7.25000   20.48100
      C    C16     7.78100    8.37600   19.50800
      O    O17     8.45700    9.40200   19.59100
      C    C18     8.97200    6.23400   19.84000
      C    C19     9.76000    5.44500   20.84000
      C    C20    10.69400    4.45400   20.18700
      O    O21    11.20200    4.70100   19.03700
      O    O22    10.92600    3.42400   20.84100
      N    N23     6.83800    8.17800   18.58400
      C    C24     6.46900    9.22300   17.61800
      C    C25     5.94400   10.46800   18.30800
      O    O26     6.24900   11.58900   17.90300
      C    C27     5.42400    8.71900   16.61800
      C    C28     6.03500    7.86400   15.53100
      C    C29     4.96900    7.30700   14.59600
      O    O30     4.76700    6.06200   14.59500
      O    O31     4.28600    8.13500   13.93500
      N    N32     5.12400   10.26700   19.33300
      C    C33     4.61800   11.37000   20.13600
      C    C34     5.72000   12.08700   20.88100
      O    O35     5.73400   13.32000   20.97100
      C    C36     3.59300   10.87300   21.10100
      N    N37     6.68000   11.33300   21.42400
      C    C38     7.77200   11.99300   22.14300
      C    C39     8.59300   12.80800   21.15700
      O    O40     9.00000   13.93600   21.46700
      C    C41     8.61900   10.98100   22.94000
      C    C42     7.76100   10.40000   24.08400
      C    C43     9.89100   11.62200   23.42600
      C    C44     8.39400    9.15200   24.74400
      N    N45     8.83700   12.25000   19.96300
      C    C46     9.57800   12.96200   18.91400
      C    C47     8.88300   14.23500   18.52800
      O    O48     9.52700   15.28000   18.39500
      C    C49     9.76700   12.10300   17.66500
      C    C50    10.62000   10.90000   17.90500
      O    O51    11.35500   10.80100   18.92000
      N    N52    10.57000    9.96800   16.95300
      N    N53     7.56600   14.16600   18.35000
      C    C54     6.77400   15.37100   18.00200
      C    C55     6.92400   16.45700   19.08200
      O    O56     7.06200   17.62800   18.73000
      C    C57     5.32400   15.00900   17.82200
      N    N58     6.90300   16.06800   20.36200
      C    C59     7.04100   17.03200   21.47200
      C    C60     8.43900   17.65100   21.43800
      O    O61     8.62900   18.88100   21.59600
      C    C62     6.73400   16.31500   22.80800
      O    O63     5.31700   15.93600   22.77700
      C    C64     7.04500   17.20900   24.02800
      N    N65     9.44300   16.79500   21.26600
      C    C66    10.81300   17.28000   21.08900
      C    C67    10.91300   18.29000   19.93400
      O    O68    11.47600   19.36700   20.05800
      C    C69    11.78200   16.09700   20.88500
      C    C70    11.95200   15.35400   22.22200
      C    C71    13.09400   16.62900   20.34500
      C    C72    12.77700   13.98400   22.12400
      N    N73    10.34700   17.93100   18.79000
      C    C74    10.32300   18.85400   17.66100
      C    C75     9.58000   20.15200   17.93100
      O    O76    10.02200   21.21500   17.47400
      C    C77     9.76200   18.15600   16.43400
      C    C78    10.67900   17.05700   15.88900
      C    C79    10.02400   16.25600   14.80200
      O    O80     8.80600   16.06300   14.83700
      N    N81    10.81600   15.79700   13.80500
      N    N82     8.44700   20.07800   18.63200
      C    C83     7.66700   21.27200   18.93700
      C    C84     8.52500   22.22700   19.80300
      O    O85     8.65200   23.41600   19.51300
      C    C86     6.39700   20.83700   19.67100
      C    C87     5.13400   21.56500   19.49200
      C    C88     4.23600   21.43000   20.74700
      N    N89     5.00800   21.87500   21.93100
      C    C90     5.11000   23.14100   22.36600
      N    N91     4.46300   24.09700   21.77400
      N    N92     5.95200   23.43300   23.36600
      N    N93     9.13000   21.68600   20.85700
      C    C94     9.98000   22.48100   21.76500
      C    C95    11.18100   23.09700   21.08700
      O    O96    11.48500   24.28500   21.30600
      C    C97    10.43500   21.64400   23.00500
      C    C98     9.22100   21.35300   23.86400
      C    C99    11.55500   22.35300   23.83300
      C    C100     9.48300   20.22200   24.86600
      N    N101    11.84700   22.36100   20.23000
      C    C102    13.02000   22.87900   19.55400
      C    C103    12.66300   23.65200   18.26200
      O    O104    13.55200   24.26600   17.65000
      C    C105    13.95600   21.77800   19.15900
      C    C106    14.53500   20.85300   20.22300
      C    C107    15.21900   19.73300   19.53000
      C    C108    15.49000   21.63300   21.08200
      N    N109    11.39200   23.62000   17.83500
      C    C110    11.02400   24.22800   16.55100
      C    C111    11.87500   23.71900   15.37900
      O    O112    12.41100   24.50400   14.57200
      C    C113    11.14300   25.74100   16.66900
      C    C114    10.17100   26.26500   17.64900
      C    C115    10.34800   27.70400   17.80800
      N    N116     9.77400   28.05800   19.08800
      C    C117     9.07700   29.14100   19.31000
      N    N118     8.59600   29.34800   20.51400
      N    N119     8.84700   30.02100   18.33300
      N    N120    11.95900   22.41400   15.24400
      C    C121    12.71200   21.79800   14.14400
      C    C122    11.89500   20.69400   13.50600
      O    O123    10.96600   20.18500   14.11800
      C    C124    14.04400   21.25100   14.64500
      O    O125    14.77700   20.69900   13.55600
      C    C126    13.84200   20.14700   15.66600
      N    N127    12.21100   20.37100   12.26200
      C    C128    11.61200   19.21900   11.57700
      C    C129    12.64900   18.13200   11.37500
      O    O130    12.38600   17.12300   10.68900
      C    C131    11.02700   19.62300   10.22400
      C    C132    12.05300   20.31200    9.31800
      O    O133    11.68300   20.75400    8.19000
      O    O134    13.22100   20.46200    9.75300
      N    N135    13.84400   18.33200   11.93400
      C    C136    14.86500   17.31200   11.82800
      C    C137    14.39600   16.00300   12.43300
      O    O138    13.64900   15.98700   13.42100
      C    C139    16.15800   17.76500   12.49900
      C    C140    16.12300   17.87300   13.95800
      C    C141    17.44200   18.50300   14.49100
      N    N142    18.58200   17.58200   14.33400
      C    C143    19.80900   17.83700   14.80800
      N    N144    20.78300   16.94900   14.65800
      N    N145    20.05800   18.96900   15.46200
      N    N146    14.85200   14.90300   11.85500
      C    C147    14.55300   13.59900   12.39600
      C    C148    15.14600   13.40200   13.79100
      O    O149    16.26900   13.84700   14.09500
      N    N150    14.38300   12.72400   14.64400
      C    C151    14.78900   12.45600   16.03800
      C    C152    15.05300   10.97700   16.22800
      O    O153    14.20200   10.17700   15.89500
      C    C154    13.65500   12.89000   17.02900
      C    C155    13.25400   14.36800   16.81200
      C    C156    14.07700   12.66200   18.44700
      C    C157    14.37800   15.39500   16.93800
      N    N158    16.21100   10.60900   16.77000
      C    C159    16.56600    9.20600   16.97900
      C    C160    17.09500    8.97400   18.37600
      O    O161    17.63300    9.88100   18.99300
      C    C162    17.61800    8.74200   15.92400
      O    O163    18.77600    9.61700   15.95900
      C    C164    16.97100    8.77500   14.55400
      N    N165    16.94900    7.73400   18.86800
      C    C166    17.21800    7.41000   20.22600
      C    C167    18.64800    7.64500   20.69100
      O    O168    18.86600    7.85300   21.85700
      C    C169    16.80100    5.98900   20.50500
      N    N170    19.61900    7.63300   19.76100
      C    C171    21.03800    7.89600   20.08200
      C    C172    21.40300    9.36100   20.28200
      O    O173    22.47900    9.66600   20.83900
      C    C174    21.91600    7.30800   18.96700
      C    C175    21.68800    8.00800   17.68900
      O    O176    20.53900    8.10800   17.23700
      N    N177    22.76300    8.54000   17.09000
      N    N178    20.53200   10.27900   19.88600
      C    C179    20.84600   11.71800   19.96000
      C    C180    20.96000   12.20500   21.37800
      O    O181    20.06300   11.97300   22.21400
      C    C182    19.83600   12.57100   19.18300
      C    C183    19.95300   12.38700   17.69100
      C    C184    18.77000   13.01600   16.91700
      O    O185    17.64200   12.99600   17.37800
      N    N186    19.04500   13.52400   15.73800
      N    N187    22.09500   12.85100   21.64100
      C    C188    22.36200   13.53100   22.90000
      C    C189    21.57100   14.83700   22.93900
      O    O190    21.73000   15.67500   22.05200
      C    C191    23.86900   13.75100   23.09600
      C    C192    24.13500   14.34800   24.40500
      C    C193    24.61900   12.41600   23.01700
      N    N194    20.73300   15.02100   23.95400
      C    C195    19.76600   16.14800   23.97200
      C    C196    20.47000   17.48500   23.86200
      O    O197    20.14800   18.31800   23.00600
      C    C198    18.88200   16.12600   25.21900
      C    C199    17.94400   14.93000   25.32500
      C    C200    17.11000   15.13800   26.58900
      C    C201    17.03100   14.77500   24.15900
      N    N202    21.49200   17.64000   24.66000
      C    C203    22.30900   18.86100   24.60900
      C    C204    23.21200   18.89100   23.38000
      O    O205    23.04000   19.76500   22.54300
      C    C206    23.16000   19.05000   25.87200
      C    C207    23.98500   20.33100   25.74600
      C    C208    22.27500   19.14600   27.09400
      N    N209    24.15200   17.94600   23.26700
      C    C210    25.21900   18.04000   22.26200
      C    C211    24.72100   17.95700   20.83600
      O    O212    25.24200   18.64800   19.94300
      C    C213    26.26400   16.95100   22.41600
      C    C214    26.84600   16.83700   23.81500
      O    O215    26.30000   17.43000   24.78900
      O    O216    27.81200   16.02100   23.93600
      N    N217    23.72100   17.11000   20.59900
      C    C218    23.18200   16.89700   19.25200
      C    C219    21.99200   17.76500   18.87100
      O    O220    21.92400   18.23500   17.74000
      C    C221    22.82900   15.41500   19.03100
      C    C222    24.06200   14.50500   19.06000
      O    O223    25.13700   14.90500   18.54500
      O    O224    23.97300   13.36800   19.56100
      N    N225    21.04700   17.93900   19.79600
      C    C226    19.77300   18.61700   19.50700
      C    C227    19.68500   20.06100   19.98400
      O    O228    18.74600   20.78900   19.60400
      C    C229    18.61100   17.80700   20.06700
      C    C230    18.43200   16.44900   19.41200
      C    C231    17.35500   15.66100   20.09300
      C    C232    18.05100   16.63300   17.94600
      N    N233    20.65000   20.44800   20.81300
      C    C234    20.78900   21.78500   21.34500
      C    C235    19.81800   22.14300   22.45600
      O    O236    19.43800   23.32000   22.62100
      N    N237    19.37000   21.16500   23.22900
      C    C238    18.62900   21.45800   24.44200
      C    C239    19.50100   22.25100   25.40400
      O    O240    20.70100   22.03000   25.50800
      C    C241    18.12900   20.18700   25.16700
      C    C242    16.84500   19.63200   24.61400
      C    C243    16.83200   18.79800   23.52800
      C    C244    15.63300   19.98600   25.17600
      C    C245    15.63300   18.29000   23.05500
      C    C246    14.43700   19.47400   24.70300
      C    C247    14.41000   18.69700   23.64800
      N    N248    18.86400   23.18800   26.10100
      C    C249    19.45800   23.91600   27.18400
      C    C250    18.59100   23.64800   28.42100
      O    O251    17.67100   22.83400   28.38200
      C    C252    19.59400   25.41500   26.82300
      C    C253    18.28000   26.07700   26.48500
      O    O254    17.22200   25.48400   26.68900
      O    O255    18.28800   27.25600   26.04600
      N    N256    18.91400   24.26800   29.54300
      C    C257    18.18600   23.94500   30.75200
      C    C258    16.69600   24.28500   30.66200
      O    O259    15.87700   23.51300   31.12600
      C    C260    18.80200   24.60800   31.96300
      O    O261    18.77400   25.99500   31.79200
      N    N262    16.36500   25.42000   30.05300
      C    C263    14.94900   25.79600   29.89000
      C    C264    14.28000   24.70800   29.02100
      O    O265    13.21700   24.27200   29.34000
      C    C266    14.83100   27.14100   29.20200
      C    C267    13.43100   27.55500   28.71400
      C    C268    12.48700   27.42900   29.80900
      C    C269    13.46000   28.93600   28.14300
      N    N270    14.86500   24.32100   27.88600
      C    C271    14.15100   23.43400   26.98200
      C    C272    14.03700   22.04100   27.58900
      O    O273    13.08100   21.30600   27.33400
      C    C274    14.79300   23.39900   25.57900
      C    C275    14.63100   24.77000   24.81900
      C    C276    15.39200   24.77100   23.46700
      C    C277    15.63600   26.19400   23.06100
      N    N278    15.96700   26.50400   21.60800
      N    N279    15.00600   21.65900   28.40500
      C    C280    14.88500   20.36900   29.09600
      C    C281    13.75600   20.40500   30.12200
      O    O282    13.06500   19.41000   30.29400
      C    C283    16.15700   20.00700   29.81600
      C    C284    17.28900   19.66700   28.86300
      C    C285    18.63500   19.71400   29.61200
      C    C286    17.02300   18.37900   28.14700
      N    N287    13.60100   21.53400   30.83100
      C    C288    12.49100   21.70100   31.75700
      C    C289    11.17100   21.61500   31.01600
      O    O290    10.21800   21.01200   31.46600
      C    C291    12.60300   23.05600   32.48600
      C    C292    11.48100   23.33900   33.41400
      C    C293    11.44500   22.75500   34.68500
      C    C294    10.41000   24.12200   33.01500
      C    C295    10.41600   23.01900   35.55400
      C    C296     9.32900   24.35000   33.89100
      C    C297     9.35300   23.80300   35.15800
      N    N298    11.09800   22.28000   29.85000
      C    C299     9.91100   22.19100   29.01700
      C    C300     9.64600   20.75300   28.63800
      O    O301     8.50900   20.30900   28.66000
      C    C302    10.05600   23.01500   27.75200
      C    C303     9.93200   24.48500   27.87200
      C    C304     9.89300   25.11500   26.48800
      O    O305    10.91000   25.39600   25.93600
      N    N306     8.68900   25.31200   25.94500
      N    N307    10.67200   20.02400   28.22100
      C    C308    10.46100   18.64700   27.80700
      C    C309     9.86500   17.79900   28.91300
      O    O310     8.88400   17.08200   28.68800
      C    C311    11.74500   18.00500   27.28700
      C    C312    11.67900   16.59100   26.84600
      C    C313    10.79200   16.40300   25.66400
      C    C314    13.10900   16.16500   26.48300
      N    N315    10.45800   17.85900   30.08600
      C    C316     9.97100   17.02500   31.21800
      C    C317     8.51100   17.37300   31.56500
      O    O318     7.64100   16.52600   31.65100
      C    C319    10.87500   17.14000   32.44600
      C    C320    12.33600   16.66100   32.11400
      C    C321    10.31000   16.32900   33.59900
      C    C322    12.45000   15.26500   31.48000
      N    N323     8.23000   18.64400   31.74000
      C    C324     6.92200   19.08700   32.14600
      C    C325     5.86800   18.84400   31.03100
      O    O326     4.72800   18.40500   31.31200
      C    C327     6.96700   20.53400   32.65700
      O    O328     7.40900   21.43600   31.62400
      C    C329     7.85800   20.66500   33.90300
      N    N330     6.21700   19.16100   29.76300
      C    C331     5.31900   18.81800   28.64400
      C    C332     4.93900   17.32900   28.62300
      O    O333     3.77900   16.98400   28.36600
      C    C334     5.87800   19.28500   27.28800
      C    C335     5.88200   19.23400   27.28700
      C    C336     4.85200   19.26300   26.15000
      C    C337     5.77000   20.71100   27.08600
      C    C338     5.12600   20.24400   24.99500
      C    C339     6.22900   21.21700   25.73400
      O    O340     4.62000   19.99500   23.86900
      O    O341     6.19300   20.47300   24.72300
      O    O342     5.81800   21.26400   25.22600
      O    O343     6.58300   22.41400   25.70300
      N    N344     5.91200   16.44100   28.78200
      C    C345     5.64600   15.02100   28.80300
      C    C346     4.83000   14.59400   30.00900
      O    O347     3.86900   13.80600   29.87800
      C    C348     6.95300   14.23500   28.78300
      C    C349     7.77200   14.35600   27.48500
      C    C350     9.08400   13.63100   27.70000
      C    C351     7.04000   13.82100   26.35300
      N    N352     5.12900   15.18100   31.17500
      C    C353     4.25900   14.89900   32.33800
      C    C354     2.79800   15.27800   32.06500
      O    O355     1.85500   14.52000   32.34700
      C    C356     4.75700   15.68900   33.57100
      C    C357     6.10100   15.15400   34.11800
      C    C358     6.52400   15.83500   35.43600
      O    O359     6.26500   17.06900   35.57900
      O    O360     7.14300   15.15400   36.31400
      N    N361     2.59800   16.43600   31.45400
      C    C362     1.24300   16.84500   31.13700
      C    C363     0.62600   16.02200   29.99500
      O    O364    -0.57700   15.75200   30.00500
      C    C365     1.21800   18.33300   30.75300
      C    C366     1.29500   19.26800   31.97500
      O    O367     0.81400   18.85100   33.05800
      O    O368     1.79100   20.41800   31.83200
      N    N369     1.42600   15.73000   28.97200
      C    C370     0.94400   15.02000   27.77000
      C    C371     0.51500   13.61800   28.09400
      O    O372    -0.49600   13.12700   27.60100
      C    C373     2.02100   14.98400   26.69000
      C    C374     1.58500   14.27500   25.41100
      C    C375     2.60000   14.41000   24.28600
      O    O376     2.25000   14.02600   23.13600
      O    O377     3.74500   14.88300   24.57100
      N    N378     1.29900   12.95500   28.91100
      C    C379     1.09100   11.54300   29.20900
      C    C380     0.43900   11.32300   30.55700
      O    O381     0.09600   10.18100   30.86100
      C    C382     2.38900   10.75700   29.09900
      C    C383     2.85400   10.57000   27.69500
      C    C384     2.33800    9.54900   26.90500
      C    C385     3.81100   11.39100   27.16900
      C    C386     2.81500    9.35500   25.56600
      C    C387     4.26000   11.27500   25.86500
      C    C388     3.76100   10.25100   25.03200
      N    N389     0.18100   12.39300   31.30600
      C    C390    -0.33100   12.31100   32.68300
      C    C391     0.54500   11.38100   33.52100
      O    O392     0.06500   10.42100   34.19400
      C    C393    -1.82100   11.91700   32.76900
      C    C394    -2.48000   12.36600   34.13300
      O    O395    -3.58300   11.82100   34.46600
      O    O396    -1.86400   13.26000   34.84800
      N    N397     1.83700   11.68300   33.49200
      C    C398     2.81600   10.94700   34.26900
      C    C399     3.59700   11.92400   35.14000
      O    O400     3.38100   13.14100   35.11000
      C    C401     3.75000   10.11400   33.34900
      C    C402     4.60300   11.00000   32.47100
      C    C403     2.91100    9.14200   32.45700
      C    C404     5.58000   10.28900   31.64000
      N    N405     4.49500   11.35400   35.93400
      C    C406     5.43400   12.10800   36.76600
      C    C407     6.79600   11.50800   36.60900
      O    O408     6.94900   10.29000   36.60900
      C    C409     4.97700   12.07700   38.22300
      N    N410     7.80000   12.37000   36.49000
      C    C411     9.17700   11.97400   36.36500
      C    C412     9.92700   12.61800   37.53800
      O    O413     9.75400   13.79500   37.81400
      C    C414     9.79500   12.42600   35.00700
      C    C415     9.03800   11.75100   33.85300
      C    C416    11.27400   12.06200   34.93500
      C    C417     9.33900   12.32000   32.52500
      N    N418    10.72600   11.81500   38.24300
      C    C419    11.39000   12.29800   39.43200
      C    C420    12.44400   13.30600   38.99600
      O    O421    12.93100   13.25900   37.85900
      C    C422    12.00900   11.16600   40.23100
      O    O423    13.10300   10.56700   39.55700
      N    N424    12.82800   14.20100   39.90200
      C    C425    13.88400   15.13700   39.55300
      C    C426    15.15800   14.33400   39.23000
      O    O427    15.91500   14.68000   38.28400
      C    C428    14.15500   16.10900   40.69800
      C    C429    15.24900   17.09100   40.36700
      C    C430    16.52500   16.97900   40.91000
      C    C431    14.96300   18.13400   39.47500
      C    C432    17.56400   17.85200   40.55300
      C    C433    16.00600   19.05300   39.12900
      C    C434    17.25900   18.91600   39.67800
      N    N435    15.40700   13.30000   40.02000
      C    C436    16.63200   12.52400   39.89700
      C    C437    16.71400   11.89000   38.49200
      O    O438    17.75900   11.90700   37.79800
      C    C439    16.71700   11.50500   41.01700
      C    C440    17.88000   10.55900   40.94500
      C    C441    17.90000    9.58500   42.08200
      N    N442    18.16400   10.23600   43.38800
      C    C443    19.35300   10.62700   43.80300
      N    N444    20.45000   10.38000   43.10400
      N    N445    19.46800   11.19300   44.97200
      N    N446    15.61500   11.30800   38.07700
      C    C447    15.54800   10.70500   36.72400
      C    C448    15.68300   11.75400   35.65800
      O    O449    16.42500   11.56400   34.71500
      C    C450    14.27900    9.88000   36.58000
      C    C451    14.38500    8.46700   37.20500
      O    O452    15.47000    8.01200   37.65200
      O    O453    13.32600    7.80800   37.31800
      N    N454    15.00800   12.90200   35.82000
      C    C455    15.15300   13.97800   34.85600
      C    C456    16.59500   14.41500   34.71900
      O    O457    17.05900   14.62100   33.58600
      C    C458    14.29200   15.14700   35.20500
      N    N459    17.28700   14.60900   35.86800
      N    N460    17.32100   14.54400   35.82400
      C    C461    18.74100   14.90600   35.94200
      C    C462    18.70200   14.97800   35.74000
      C    C463    19.56600   13.99500   35.04500
      C    C464    19.65700   13.97000   35.13600
      O    O465    20.50500   14.44000   34.34900
      O    O466    20.78500   14.33100   34.74700
      C    C467    19.31500   14.71600   37.39600
      C    C468    19.20000   15.34700   37.13800
      C    C469    19.43000   15.92800   38.34700
      C    C470    18.47600   16.52000   37.65900
      C    C471    20.34000   15.66400   39.60400
      C    C472    19.04900   17.82100   37.14200
      O    O473    20.03600   14.79700   40.47100
      O    O474    20.13300   18.26200   37.57100
      N    N475    21.50900   16.40200   39.68300
      N    N476    18.33900   18.44700   36.22900
      N    N477    19.25600   12.71600   35.13400
      C    C478    20.03600   11.65000   34.54300
      C    C479    19.71800   11.41700   33.06500
      O    O480    20.40000   10.64600   32.44500
      C    C481    19.79800   10.34400   35.30200
      C    C482    20.45300   10.32900   36.66400
      O    O483    21.37600   11.09700   36.90900
      N    N484    19.97500    9.45800   37.56900
      N    N485    18.68100   12.05200   32.51100
      C    C486    18.34600   11.89600   31.09500
      C    C487    19.39600   12.58300   30.23300
      O    O488    19.63900   13.79800   30.38400
      C    C489    16.95400   12.45000   30.79400
      C    C490    15.91800   11.48000   31.31700
      C    C491    16.79900   12.72000   29.29100
      C    C492    14.56000   12.02800   31.29300
      N    N493    20.01100   11.82200   29.32700
      C    C494    21.05000   12.37100   28.48100
      C    C495    20.69600   12.28900   26.98700
      O    O496    21.02800   13.19400   26.23900
      C    C497    22.36400   11.64600   28.67800
      C    C498    22.99100   11.78900   30.05000
      C    C499    23.31900   13.20900   30.35100
      C    C500    24.48400   13.23600   31.33300
      N    N501    24.10900   12.54400   32.59200
      N    N502    20.12500   11.15300   26.57700
      C    C503    19.75200   10.91800   25.19900
      C    C504    18.26100   10.87400   24.98100
      O    O505    17.49600   10.65300   25.91600
      C    C506    20.34500    9.60200   24.69000
      O    O507    19.81600    8.50600   25.43000
      C    C508    21.84900    9.61400   24.83400
      N    N509    17.87600   10.96800   23.71900
      C    C510    16.48100   10.74800   23.33000
      C    C511    16.00000    9.37700   23.87600
      O    O512    14.88900    9.27400   24.40800
      C    C513    16.32000   10.83500   21.82100
      C    C514    14.92800   10.30100   21.36600
      C    C515    16.55900   12.28200   21.30300
      N    N516    16.80400    8.32900   23.73400
      C    C517    16.41600    7.03400   24.23400
      C    C518    16.05000    7.01500   25.70200
      O    O519    15.13800    6.30500   26.10300
      N    N520    16.76800    7.79200   26.49900
      C    C521    16.55300    7.88800   27.97700
      C    C522    15.15100    8.51100   28.21700
      O    O523    14.38900    8.09800   29.10600
      C    C524    17.57500    8.80900   28.62200
      C    C525    18.99300    8.27100   28.61500
      O    O526    19.20500    7.03300   28.49500
      O    O527    19.88300    9.13200   28.77900
      N    N528    14.80500    9.47800   27.37000
      C    C529    13.44700   10.06900   27.39000
      C    C530    12.38300    8.99300   27.08200
      O    O531    11.36700    8.85900   27.80500
      C    C532    13.31200   11.22400   26.38700
      C    C533    11.90200   11.85200   26.49300
      C    C534    14.31400   12.31700   26.63600
      N    N535    12.60300    8.17100   26.03300
      C    C536    11.67100    7.08400   25.72500
      C    C537    11.47900    6.14400   26.88900
      O    O538    10.38300    5.76700   27.20500
      C    C539    12.13300    6.28000   24.49400
      C    C540    12.28000    7.00500   23.18600
      C    C541    11.66200    8.19700   22.89900
      C    C542    12.95900    6.38300   22.12500
      C    C543    11.78000    8.79400   21.62300
      C    C544    13.06700    6.95600   20.87100
      C    C545    12.49000    8.13400   20.60200
      O    O546    12.68500    8.64500   19.33900
      N    N547    12.55700    5.75000   27.55500
      C    C548    12.42600    4.71300   28.59200
      C    C549    11.81800    5.35800   29.84600
      O    O550    11.12500    4.67100   30.60800
      C    C551    13.76700    3.98500   28.83800
      O    O552    14.73000    4.95000   29.16600
      C    C553    14.22000    3.36700   27.61800
      N    N554    11.99400    6.66300   30.02400
      C    C555    11.37200    7.37400   31.17900
      C    C556     9.85400    7.40300   31.04800
      O    O557     9.14000    7.28200   32.07000
      C    C558    11.89200    8.79600   31.36300
      C    C559    11.92500    8.79900   31.33900
      O    O560    13.10900    8.85000   32.06700
      O    O561    11.37000    9.71800   30.38600
      N    N562     9.35100    7.57000   29.82100
      C    C563     7.92900    7.50000   29.57500
      C    C564     7.45100    6.04200   29.51300
      O    O565     6.37200    5.72800   30.01900
      C    C566     7.58200    8.23900   28.28600
      C    C567     6.11000    8.12400   27.94000
      C    C568     8.04100    9.70700   28.41100
      N    N569     8.21800    5.17000   28.85800
      C    C570     7.81800    3.73900   28.71800
      C    C571     7.48500    3.03600   30.01600
      O    O572     6.68200    2.08100   30.01500
      C    C573     8.88100    2.96900   28.00400
      N    N574     8.10900    3.44000   31.11100
      C    C575     7.85100    2.80100   32.40100
      C    C576     6.40600    2.97800   32.84400
      O    O577     5.89800    2.16900   33.60200
      C    C578     8.85600    3.25000   33.53800
      C    C579    10.32600    2.91900   33.14000
      C    C580     8.66600    4.64800   33.93400
      N    N581     5.73400    4.00100   32.32900
      C    C582     4.33800    4.24900   32.67800
      C    C583     3.34800    3.46500   31.80200
      O    O584     2.16400    3.46500   32.09100
      C    C585     4.03900    5.75400   32.61200
      C    C586     4.69400    6.50100   33.76700
      C    C587     5.99400    6.92200   33.85600
      C    C588     4.06700    6.87700   35.00300
      N    N589     6.22100    7.56100   35.09100
      C    C590     5.04000    7.54500   35.79300
      C    C591     2.76700    6.76400   35.49500
      C    C592     4.75100    8.08200   37.04500
      C    C593     2.48800    7.28400   36.75200
      C    C594     3.49100    7.95200   37.51600
      N    N595     3.83900    2.78600   30.77000
      C    C596     2.98100    2.06700   29.80000
      C    C597     3.47300    0.65800   29.46100
      O    O598     4.22100    0.05500   30.23200
      C    C599     2.93100    2.89000   28.53400
      C    C600     2.36600    4.25100   28.75800
      C    C601     3.19300    5.35400   28.87300
      C    C602     0.98400    4.41700   28.93000
      C    C603     2.65000    6.60100   29.13100
      C    C604     0.43500    5.67000   29.17700
      C    C605     1.26000    6.75500   29.27600
