# CIF file generated by openbabel 2.3.2, see http://openbabel.sf.net
data_I
_chemical_name_common '../proteins/pdb/2FGG.pdb'
_cell_length_a 48.054
_cell_length_b 47.51
_cell_length_c 94.807
_cell_angle_alpha 90
_cell_angle_beta 90
_cell_angle_gamma 90
_space_group_name_H-M_alt 'I 21 21 21'
_space_group_name_Hall 'I 2b 2c'
loop_
    _symmetry_equiv_pos_as_xyz
    'x,y,z'
    '1/2-x,-y,1/2+z'
    '-x,1/2+y,1/2-z'
    '1/2+x,1/2-y,-z'
    '1/2+x,1/2+y,1/2+z'
    '-x,1/2-y,z'
    '1/2-x,y,-z'
    'x,-y,1/2-z'
loop_
    _atom_site_type_symbol
    _atom_site_label
    _atom_site_Cartn_x
    _atom_site_Cartn_y
    _atom_site_Cartn_z
      N    N1   -26.19000   20.99100    0.76600
      C    C2   -25.78300   21.74300    1.99000
      C    C3   -26.17300   20.98100    3.26200
      O    O4   -27.33900   20.62000    3.42800
      C    C5   -26.40400   23.14500    1.98800
      O    O6   -27.79000   23.09200    1.68700
      N    N7   -25.21500   20.73500    4.15900
      C    C8   -23.82300   21.16100    4.00000
      C    C9   -22.89800   19.94400    4.08800
      O    O10   -22.65200   19.40700    5.17400
      C    C11   -23.42900   22.20500    5.05900
      C    C12   -24.56700   23.09500    5.57200
      C    C13   -25.27600   22.50700    6.78600
      O    O14   -26.52400   22.30700    6.70200
      O    O15   -24.58800   22.24000    7.82000
      N    N16   -22.37300   19.53400    2.93700
      C    C17   -21.68400   18.24900    2.78600
      C    C18   -20.19400   18.36500    2.44700
      O    O19   -19.52400   17.34300    2.25800
      C    C20   -22.37500   17.45300    1.68000
      C    C21   -22.49500   18.21200    0.39400
      N    N22   -21.50800   18.20500   -0.56800
      C    C23   -23.46500   19.03500   -0.06800
      C    C24   -21.87300   18.97600   -1.57600
      N    N25   -23.05600   19.49400   -1.29600
      N    N26   -19.67500   19.59100    2.36800
      C    C27   -18.33500   19.81600    1.81300
      C    C28   -17.19800   19.47500    2.77900
      O    O29   -17.06900   20.06500    3.85600
      C    C30   -18.16800   21.24300    1.21100
      C    C31   -16.73100   21.48300    0.75500
      C    C32   -19.12000   21.43600    0.03500
      N    N33   -16.38800   18.50300    2.36900
      C    C34   -15.16700   18.13800    3.06300
      C    C35   -13.95900   18.43600    2.20100
      O    O36   -14.09100   18.93700    1.08600
      N    N37   -12.77700   18.12700    2.72200
      C    C38   -11.52300   18.38600    2.01300
      C    C39   -10.45600   17.31900    2.27800
      O    O40   -10.61300   16.48400    3.16200
      C    C41   -10.98900   19.78800    2.32600
      C    C42   -11.13100   20.21800    3.77200
      C    C43   -10.80300   21.68400    3.91000
      C    C44   -11.76300   22.35300    4.85200
      N    N45   -11.80500   23.81100    4.60300
      N    N46    -9.37100   17.37800    1.50800
      C    C47    -8.38500   16.30600    1.42900
      C    C48    -6.95000   16.81800    1.53500
      O    O49    -6.51800   17.66300    0.75800
      C    C50    -8.57500   15.49800    0.11500
      O    O51    -9.73300   14.66500    0.23400
      C    C52    -7.36500   14.62200   -0.20100
      N    N53    -6.22300   16.29800    2.51500
      C    C54    -4.79900   16.57400    2.66700
      C    C55    -4.01500   15.32600    2.36400
      O    O56    -4.56300   14.23000    2.29000
      C    C57    -4.45300   16.97900    4.10000
      S    S58    -5.33200   18.38500    4.69700
      N    N59    -2.71700   15.51400    2.19900
      C    C60    -1.77800   14.42800    2.28600
      C    C61    -0.64700   14.84300    3.19000
      O    O62    -0.17300   15.97900    3.12900
      C    C63    -1.25200   14.05400    0.91300
      C    C64    -2.20200   13.15600    0.17600
      C    C65    -1.55500   12.50100   -0.99300
      O    O66    -1.01100   13.17500   -1.87100
      N    N67    -1.59300   11.17200   -1.02100
      N    N68    -0.24300   13.92200    4.05100
      C    C69     0.92700   14.10500    4.87100
      C    C70     2.01400   13.26100    4.22100
      O    O71     1.82900   12.06500    4.00800
      C    C72     0.65400   13.68500    6.32900
      C    C73    -0.36200   14.63800    6.96000
      C    C74     1.93200   13.68600    7.15400
      C    C75    -1.09500   14.04700    8.11500
      N    N76     3.12500   13.90600    3.87700
      C    C77     4.24300   13.26000    3.20100
      C    C78     5.26700   12.77900    4.22700
      O    O79     5.94000   13.59400    4.85600
      C    C80     4.90100   14.24300    2.22700
      C    C81     3.98800   14.63100    1.05800
      O    O82     3.33100   13.74800    0.46700
      O    O83     3.94600   15.82900    0.71000
      N    N84     5.38800   11.46100    4.38700
      C    C85     6.31200   10.87500    5.37100
      C    C86     7.59400   10.38500    4.71200
      O    O87     7.54500    9.66800    3.72100
      C    C88     5.68000    9.69000    6.15500
      C    C89     6.61300    9.22700    7.27300
      C    C90     4.33600   10.07600    6.72600
      N    N91     8.73100   10.78900    5.27400
      C    C92    10.03800   10.28500    4.87600
      C    C93    10.65700    9.53000    6.04600
      O    O94    10.68300   10.03800    7.15800
      C    C95    10.94200   11.44600    4.45300
      C    C96    12.44200   11.21900    4.22400
      C    C97    12.71300   10.40900    2.96300
      C    C98    13.17500   12.54400    4.16200
      N    N99    11.13400    8.31200    5.79400
      C    C100    11.87400    7.53500    6.79700
      C    C101    13.30800    7.31200    6.33100
      O    O102    13.53000    6.66100    5.31600
      C    C103    11.23600    6.14800    7.07700
      C    C104     9.74200    6.26400    7.37900
      C    C105    11.95600    5.43800    8.22200
      C    C106     8.85900    5.94500    6.19400
      N    N107    14.27200    7.85000    7.07200
      C    C108    15.68700    7.64300    6.76700
      C    C109    16.33100    6.83700    7.87700
      O    O110    16.18800    7.17100    9.05200
      C    C111    16.43700    8.96700    6.64600
      C    C112    15.81500   10.00800    5.75200
      C    C113    16.59300   11.30700    5.79300
      O    O114    16.23500   12.18800    6.60700
      O    O115    17.57700   11.43600    5.03000
      N    N116    17.05300    5.78800    7.49800
      C    C117    17.71500    4.91100    8.45900
      C    C118    19.22600    5.10900    8.35800
      O    O119    19.82600    4.83300    7.31600
      C    C120    17.31200    3.45800    8.20500
      C    C121    15.80800    3.21600    8.33400
      C    C122    15.28300    2.19500    7.34400
      O    O123    14.34200    2.52900    6.59400
      O    O124    15.81200    1.06200    7.30800
      N    N125    19.83100    5.58500    9.44600
      C    C126    21.19500    6.13600    9.39300
      C    C127    22.37700    5.14600    9.18800
      O    O128    22.99500    5.22100    8.12400
      C    C129    21.44700    7.17800   10.50700
      C    C130    20.66300    8.45400   10.35500
      N    N131    21.25000    9.70200   10.43100
      C    C132    19.34100    8.67600   10.14800
      C    C133    20.32600   10.63400   10.27700
      N    N134    19.15800   10.03800   10.10500
      N    N135    22.73500    4.23000   10.10900
      C    C136    22.14400    3.92500   11.43200
      C    C137    22.71900    4.82900   12.56200
      O    O138    23.53700    5.71000   12.26900
      C    C139    22.38500    2.43500   11.74900
      C    C140    21.21600    1.53100   11.33500
      O    O141    21.44600    0.31100   11.17600
      O    O142    20.07200    2.02300   11.18100
      N    N143    22.35300    4.63000   13.84400
      C    C144    21.69700    3.42200   14.41900
      C    C145    20.18400    3.09000   14.22200
      O    O146    19.87500    1.89500   14.21100
      C    C147    22.11600    3.19200   15.89500
      C    C148    21.28300    3.92500   16.96700
      C    C149    21.99700    5.12500   17.59100
      O    O150    21.30000    6.01000   18.13500
      O    O151    23.24900    5.18000   17.55100
      N    N152    19.22100    4.01700   14.09400
      C    C153    19.19400    5.48500   14.27300
      C    C154    18.27700    5.98600   13.17000
      O    O155    18.66400    6.81500   12.35500
      C    C156    20.54300    6.20200   14.18400
      C    C157    20.76200    7.34700   15.19200
      C    C158    19.48200    7.78600   15.92700
      N    N159    19.77300    8.14600   17.31900
      C    C160    18.87600    8.19100   18.30400
      N    N161    17.60100    7.90000   18.07500
      N    N162    19.25700    8.52800   19.53200
      N    N163    17.06100    5.45500   13.14200
      C    C164    16.09700    5.78000   12.09800
      C    C165    15.21600    6.99000   12.45400
      O    O166    14.71600    7.10600   13.57100
      C    C167    15.28800    4.52100   11.64100
      O    O168    13.92300    4.86700   11.38400
      C    C169    15.34500    3.41100   12.68200
      N    N170    15.05700    7.89300   11.49000
      C    C171    14.32500    9.14200   11.69100
      C    C172    13.20400    9.30900   10.67900
      O    O173    13.38500    9.07200    9.49300
      C    C174    15.26800   10.34300   11.58700
      C    C175    14.59500   11.69300   11.81400
      C    C176    14.98800   12.69200   10.73300
      N    N177    16.31400   13.25500   10.95900
      C    C178    17.08200   13.78700   10.01000
      N    N179    16.66900   13.82800    8.74800
      N    N180    18.27700   14.26700   10.32600
      N    N181    12.04500    9.73000   11.16200
      C    C182    10.92900   10.03800   10.28800
      C    C183    10.55000   11.50900   10.36500
      O    O184    10.60400   12.13200   11.42600
      C    C185     9.73400    9.16100   10.59700
      N    N186    10.19300   12.05100    9.20800
      C    C187     9.65200   13.38600    9.09100
      C    C188     8.27100   13.27600    8.45300
      O    O189     8.12400   12.62600    7.41700
      C    C190    10.58100   14.25700    8.25200
      C    C191    11.85300   14.65400    8.98800
      C    C192    12.83900   15.36700    8.08600
      C    C193    13.95500   15.95900    8.90300
      N    N194    14.65400   17.02000    8.14100
      N    N195     7.26300   13.86900    9.10300
      C    C196     5.89600   13.94800    8.56700
      C    C197     5.53100   15.40200    8.25800
      O    O198     5.34000   16.20800    9.16800
      C    C199     4.90600   13.34100    9.53500
      N    N200     5.44100   15.72700    6.96900
      C    C201     5.20700   17.09500    6.51400
      C    C202     3.75500   17.33500    6.12600
      O    O203     3.19300   16.60400    5.32700
      C    C204     6.13200   17.43900    5.33800
      C    C205     5.89600   18.83400    4.74400
      C    C206     6.73500   19.11100    3.50200
      N    N207     6.71500   17.99400    2.55700
      C    C208     7.41700   17.94100    1.42500
      N    N209     8.20500   18.95200    1.06700
      N    N210     7.32500   16.87100    0.64500
      N    N211     3.16500   18.37500    6.70100
      C    C212     1.81500   18.80700    6.36000
      C    C213     1.82200   20.29300    5.98300
      O    O214     2.39500   21.11900    6.69800
      C    C215     0.86400   18.54800    7.54000
      C    C216    -0.55700   19.13100    7.52600
      C    C217    -1.40700   18.56700    6.38800
      C    C218    -1.23300   18.89500    8.85900
      N    N219     1.20800   20.62600    4.85100
      C    C220     0.97200   22.01700    4.48800
      C    C221    -0.34900   22.44700    5.09000
      O    O222    -1.39700   21.89900    4.74700
      C    C223     0.93600   22.19000    2.97300
      O    O224     2.24200   22.19500    2.43200
      N    N225    -0.29700   23.41700    5.99800
      C    C226    -1.49300   23.82900    6.74100
      C    C227    -1.51400   25.31300    7.09800
      O    O228    -0.54100   25.84800    7.62900
      C    C229    -1.68000   22.97700    8.00500
      C    C230    -2.98700   23.23100    8.68000
      C    C231    -3.19700   23.96300    9.81100
      C    C232    -4.27400   22.78000    8.24700
      N    N233    -4.53500   23.98800   10.11600
      C    C234    -5.22000   23.27200    9.17100
      C    C235    -4.72100   22.00800    7.16500
      C    C236    -6.59200   23.01400    9.05000
      C    C237    -6.08600   21.75600    7.04200
      C    C238    -7.00200   22.25600    7.98200
      N    N239    -2.64300   25.95900    6.80400
      C    C240    -2.85000   27.37600    7.07400
      C    C241    -1.67400   28.20500    6.57300
      O    O242    -1.19100   29.10000    7.26600
      C    C243    -3.09300   27.60900    8.56400
      N    N244    -1.20700   27.88900    5.36900
      C    C245    -0.09500   28.61500    4.76000
      C    C246     1.27100   28.40200    5.39700
      O    O247     2.18700   29.20600    5.19800
      N    N248     1.41400   27.32100    6.15700
      C    C249     2.70700   26.97200    6.73100
      C    C250     3.06600   25.50200    6.49600
      O    O251     2.19300   24.64400    6.36000
      C    C252     2.77400   27.35900    8.21900
      C    C253     2.01000   26.44300    9.16200
      C    C254     1.72200   27.09600   10.51200
      N    N255     0.55800   27.97700   10.43500
      C    C256     0.11700   28.74000   11.43200
      N    N257     0.74500   28.73100   12.60600
      N    N258    -0.95200   29.51500   11.25200
      N    N259     4.36500   25.24100    6.41200
      C    C260     4.88900   23.89300    6.28100
      C    C261     5.11100   23.37800    7.67600
      O    O262     5.95300   23.88800    8.40400
      C    C263     6.22300   23.89000    5.52700
      C    C264     6.18300   24.54200    4.15800
      C    C265     5.20700   23.86200    3.21500
      O    O266     5.09200   22.63500    3.19800
      N    N267     4.49800   24.65900    2.42300
      N    N268     4.34600   22.37600    8.06200
      C    C269     4.51000   21.80300    9.38100
      C    C270     5.19500   20.45400    9.26700
      O    O271     4.82300   19.63300    8.43700
      C    C272     3.16100   21.69000   10.07300
      C    C273     2.47200   23.02500   10.21600
     Se   Se274     0.75200   22.86400   11.07900
      C    C275     1.30600   22.49300   12.86900
      N    N276     6.22000   20.24500   10.08400
      C    C277     6.97400   18.99700   10.05500
      C    C278     7.06200   18.40700   11.44500
      O    O279     7.54500   19.04400   12.37400
      C    C280     8.40200   19.18000    9.48500
      C    C281     9.06700   17.82800    9.26600
      C    C282     8.36500   19.95400    8.18600
      N    N283     6.57500   17.18400   11.57400
      C    C284     6.76100   16.39700   12.78000
      C    C285     7.99000   15.53500   12.60000
      O    O286     8.17300   14.92600   11.54700
      N    N287     8.84900   15.50000   13.61400
      C    C288    10.08600   14.73700   13.53100
      C    C289    10.10200   13.67200   14.61800
      O    O290     9.82800   13.96400   15.77700
      C    C291    11.33000   15.65200   13.62800
      C    C292    12.58000   14.90300   13.18700
      C    C293    11.15300   16.89400   12.76600
      N    N294    10.40600   12.43900   14.21900
      C    C295    10.49500   11.30600   15.13400
      C    C296    11.77200   10.49600   14.97000
      O    O297    12.26300   10.32800   13.86100
      N    N298    12.29900    9.98600   16.08200
      C    C299    13.56800    9.26400   16.09400
      C    C300    13.51900    8.01400   16.95300
      O    O301    13.03400    8.05400   18.07700
      C    C302    14.67200   10.17000   16.62900
      C    C303    15.26800   11.17600   15.65300
      C    C304    15.40500   12.53700   16.31100
      C    C305    16.61200   10.67200   15.14000
      N    N306    14.02500    6.91600   16.40100
      C    C307    14.30700    5.68100   17.12600
      C    C308    15.74500    5.37100   16.73000
      O    O309    16.04800    5.55000   15.56000
      C    C310    13.38100    4.59900   16.64100
      N    N311    16.66800    4.90800   17.58900
      C    C312    16.56700    4.21500   18.89500
      C    C313    17.22700    2.85800   18.65100
      O    O314    18.36900    2.81500   18.19500
      C    C315    15.14700    4.07800   19.48000
      C    C316    14.84600    5.00900   20.67100
      C    C317    13.62800    4.55200   21.47700
      N    N318    13.97800    3.81800   22.69700
      C    C319    13.86100    2.49700   22.86300
      N    N320    13.39800    1.72500   21.88100
      N    N321    14.21100    1.94000   24.02200
      N    N322    16.50800    1.77500   18.96100
      C    C323    16.82200    0.38100   18.56300
      C    C324    18.22500    0.05900   17.98700
      O    O325    18.50300    0.41500   16.83800
      C    C326    15.74700   -0.13600   17.57900
      C    C327    14.28200   -0.42400   17.96900
      C    C328    14.14800   -1.57000   18.96600
      C    C329    13.55100    0.80100   18.49100
      N    N330    19.11200   -0.61400   18.73800
      C    C331    18.98300   -0.95900   20.17400
      C    C332    20.11000   -1.82800   20.81600
      O    O333    19.85200   -2.48000   21.83500
      C    C334    17.59300   -1.54900   20.52200
      C    C335    17.36500   -2.95800   19.95500
      O    O336    18.31300   -3.59200   19.42800
      O    O337    16.21100   -3.43600   20.05500
      N    N338    21.34800   -1.85700   20.25200
      C    C339    21.94800   -1.38600   18.98400
      C    C340    21.44500   -1.92100   17.60700
      O    O341    20.96600   -1.08100   16.84100
      C    C342    23.46700   -1.58200   19.19500
      C    C343    23.64100   -1.68000   20.68200
      C    C344    22.39700   -2.38000   21.15500
      N    N345    21.51300   -3.21300   17.21900
      C    C346    21.95300   -4.46900   17.91500
      C    C347    21.02800   -5.11400   18.98600
      O    O348    21.02700   -4.70900   20.14600
      C    C349    23.45000   -4.45400   18.34300
      N    N350    20.28400   -6.15800   18.61000
      C    C351    20.48200   -6.89200   17.35900
      C    C352    19.14700   -7.24800   16.65900
      O    O353    18.56900   -8.30100   16.94300
      C    C354    21.29700   -8.16400   17.66600
      C    C355    21.72500   -8.92100   16.41700
      O    O356    21.85300  -10.16300   16.50000
      O    O357    21.94500   -8.28600   15.36200
      N    N358    18.63400   -6.38700   15.76900
      C    C359    19.16500   -5.03600   15.50000
      C    C360    18.10900   -3.92000   15.30000
      O    O361    18.47500   -2.73700   15.31700
      C    C362    20.21300   -5.02600   14.36200
      C    C363    19.66300   -4.87800   12.94000
      C    C364    19.78200   -6.15300   12.11200
      O    O365    19.04800   -6.27300   11.10600
      O    O366    20.60600   -7.03100   12.45800
      N    N367    16.81000   -4.27200   15.10900
      C    C368    16.13600   -5.55700   14.79400
      C    C369    16.30100   -6.15200   13.34500
      O    O370    17.09900   -7.08700   13.25900
      C    C371    14.69900   -5.35600   15.31500
      C    C372    14.75000   -4.02900   16.12300
      C    C373    15.81200   -3.23300   15.41500
      N    N374    15.63100   -5.77000   12.23200
      C    C375    14.28100   -5.16800   11.97600
      C    C376    13.93500   -3.77000   12.54300
      O    O377    13.50600   -3.67400   13.67900
      C    C378    13.10700   -6.25200   12.06900
      C    C379    12.94300   -6.85300   13.46700
      C    C380    11.78600   -5.71000   11.54700
      N    N381    13.99800   -2.68100   11.76600
      C    C382    13.72500   -2.53200   10.32300
      C    C383    12.32100   -1.92600   10.27200
      O    O384    12.17200   -0.70800   10.21600
      C    C385    13.81200   -3.82600    9.53700
      N    N386    11.29800   -2.77100   10.35400
      C    C387     9.92100   -2.30500   10.45400
      C    C388     9.65700   -1.68300   11.82500
      O    O389     8.95300   -0.68000   11.91400
      C    C390     8.94000   -3.44600   10.18400
      C    C391     7.49100   -3.01100   10.02400
      C    C392     6.53200   -4.17900   10.08200
      O    O393     6.53900   -5.04300    9.20900
      N    N394     5.70100   -4.21500   11.11500
      N    N395    10.23200   -2.27500   12.87700
      C    C396    10.09700   -1.76100   14.24400
      C    C397    10.63500   -0.33100   14.36200
      O    O398     9.93400    0.55300   14.84300
      C    C399    10.76800   -2.67900   15.30000
      C    C400    10.13400   -4.07000   15.29700
      C    C401    10.65200   -2.06600   16.69100
      C    C402    10.87500   -5.10000   16.13800
      N    N403    11.86600   -0.10900   13.91100
      C    C404    12.46100    1.22400   13.92200
      C    C405    11.68800    2.25000   13.10700
      O    O406    11.51800    3.38500   13.54000
      N    N407    11.21900    1.84000   11.92900
      C    C408    10.44900    2.70000   11.02900
      C    C409     9.12600    3.11400   11.63400
      O    O410     8.81300    4.30200   11.68800
      C    C411    10.16600    1.99500    9.69900
      C    C412    11.40800    1.76600    8.87500
      O    O413    12.51200    2.18800    9.28800
      O    O414    11.27500    1.13300    7.80900
      N    N415     8.34200    2.14000   12.08200
      C    C416     7.02700    2.43300   12.65800
      C    C417     7.08900    3.22200   13.97400
      O    O418     6.19300    4.01200   14.26600
      C    C419     6.19100    1.15400   12.80900
      C    C420     6.71200    0.15400   13.82600
      C    C421     6.13700   -1.23100   13.65200
      O    O422     5.43900   -1.48500   12.65400
      O    O423     6.39800   -2.08600   14.51000
      N    N424     8.13800    3.01500   14.76500
      C    C425     8.34000    3.80800   15.97500
      C    C426     8.71300    5.25000   15.64300
      O    O427     8.26300    6.18100   16.30800
      C    C428     9.40600    3.17800   16.87500
      C    C429     9.74800    3.85300   18.20900
      C    C430     8.50500    4.22500   18.99800
      C    C431    10.65900    2.96100   19.04200
      N    N432     9.54500    5.43100   14.62400
      C    C433     9.90900    6.76000   14.17200
      C    C434     8.68600    7.48000   13.63100
      O    O435     8.47400    8.64200   13.94300
      C    C436    10.98300    6.69300   13.12600
      N    N437     7.88600    6.79500   12.82200
      C    C438     6.68100    7.39400   12.26200
      C    C439     5.72200    7.78700   13.38000
      O    O440     5.17400    8.88200   13.37400
      C    C441     5.96500    6.45000   11.27300
      C    C442     6.85400    6.15200   10.06600
      C    C443     4.67800    7.07200   10.78200
      C    C444     6.30500    5.05400    9.17700
      N    N445     5.53000    6.89800   14.34700
      C    C446     4.66800    7.18000   15.48100
      C    C447     5.10700    8.45300   16.21100
      O    O448     4.28700    9.29700   16.53600
      C    C449     4.62400    5.98300   16.42600
      N    N450     6.40000    8.59400   16.46100
      C    C451     6.92600    9.78500   17.14000
      C    C452     6.81700   11.04600   16.27400
      O    O453     6.54300   12.13100   16.78500
      C    C454     8.35800    9.54800   17.59400
      C    C455     8.46600    8.38200   18.53800
      C    C456     9.87000    8.10700   18.97500
      N    N457     9.84600    7.40300   20.25100
      C    C458    10.78000    6.56400   20.67100
      N    N459    11.83100    6.30700   19.91300
      N    N460    10.65200    5.97100   21.84900
      N    N461     7.01100   10.89100   14.96800
      C    C462     6.82000   11.98400   14.03400
      C    C463     5.37700   12.47900   14.03500
      O    O464     5.13900   13.67100   14.04000
      C    C465     7.24800   11.57800   12.64800
      N    N466     4.41300   11.56900   14.03100
      C    C467     2.99800   11.94900   13.98200
      C    C468     2.51300   12.58300   15.28800
      O    O469     1.68500   13.48500   15.25700
      C    C470     2.12700   10.74400   13.60900
      C    C471     2.31500   10.13300   12.21600
      C    C472     1.40900    8.93100   12.06100
      C    C473     2.08400   11.13300   11.07900
      N    N474     3.02700   12.09400   16.41800
      C    C475     2.80300   12.69000   17.73400
      C    C476     3.27400   14.11700   17.75900
      O    O477     2.59600   14.98600   18.29300
      C    C478     3.58600   11.95200   18.82400
      O    O479     3.28900   10.57900   18.82100
      N    N480     4.46800   14.34100   17.22300
      C    C481     5.06200   15.66400   17.17400
      C    C482     4.13400   16.58700   16.39500
      O    O483     3.80500   17.67500   16.84800
      C    C484     6.43500   15.59900   16.50600
      C    C485     7.16200   16.92200   16.53600
      O    O486     6.81100   17.76900   17.38200
      O    O487     8.09300   17.12600   15.72900
      N    N488     3.70100   16.13100   15.22900
      C    C489     2.86900   16.93100   14.36200
      C    C490     1.50300   17.15600   15.00300
      O    O491     0.97500   18.26700   14.94500
      C    C492     2.75400   16.27800   12.98600
      C    C493     1.95300   16.97900   11.88900
      C    C494     2.54200   18.33100   11.51900
      C    C495     1.87800   16.08400   10.68100
      N    N496     0.94000   16.11400   15.61600
      C    C497    -0.31400   16.24100   16.36000
      C    C498    -0.19900   17.31100   17.44800
      O    O499    -1.08600   18.15800   17.57700
      C    C500    -0.71900   14.91900   16.96100
      N    N501     0.90400   17.29000   18.20200
      C    C502     1.15000   18.26600   19.26200
      C    C503     1.27900   19.68400   18.72900
      O    O504     0.83000   20.63600   19.35900
      C    C505     2.39500   17.91300   20.06700
      C    C506     2.24300   16.62300   20.86000
      O    O507     1.13700   16.23100   21.26800
      N    N508     3.36500   15.94600   21.08100
      N    N509     1.89800   19.82700   17.56800
      C    C510     1.98500   21.12500   16.92200
      C    C511     0.59800   21.60400   16.50100
      O    O512     0.29300   22.79000   16.60100
      C    C513     2.91100   21.05700   15.71600
      C    C514     4.37500   20.97500   16.07600
      C    C515     5.21500   20.69400   14.87400
      O    O516     5.15400   21.41200   13.88600
      N    N517     6.00600   19.64600   14.94200
      N    N518    -0.24100   20.67700   16.05100
      C    C519    -1.59200   21.01000   15.64300
      C    C520    -2.49900   21.33500   16.83700
      O    O521    -3.43600   22.13800   16.70900
      C    C522    -2.18000   19.89000   14.78500
      C    C523    -1.68400   19.82600   13.34000
      C    C524    -1.99900   18.48400   12.72800
      C    C525    -2.29300   20.95600   12.51700
      N    N526    -2.21300   20.72000   17.98700
      C    C527    -2.91200   21.03900   19.23100
      C    C528    -2.51300   22.43200   19.71400
      O    O529    -3.34900   23.20700   20.16700
      C    C530    -2.63400   20.00000   20.32200
      C    C531    -3.38500   18.69700   20.14900
      C    C532    -4.76800   18.67700   20.03800
      C    C533    -2.70100   17.48300   20.13800
      C    C534    -5.45500   17.46800   19.88200
      C    C535    -3.37500   16.28100   19.99400
      C    C536    -4.75300   16.27300   19.86000
      N    N537    -1.23600   22.75200   19.59900
      C    C538    -0.75800   24.08800   19.93700
      C    C539    -1.36800   25.15200   19.02200
      O    O540    -1.64000   26.26800   19.45300
      C    C541     0.75100   24.13800   19.88100
      N    N542    -1.59500   24.80000   17.76300
      C    C543    -2.17100   25.73600   16.80400
      C    C544    -3.65200   25.95900   17.08700
      O    O545    -4.15400   27.08000   16.97600
      C    C546    -1.96000   25.24000   15.37700
      C    C547    -2.43400   26.14400   14.23400
      C    C548    -1.94400   27.58400   14.39600
      C    C549    -1.98100   25.57500   12.91400
      N    N550    -4.33500   24.88100   17.46200
      C    C551    -5.74000   24.93600   17.84400
      C    C552    -5.93600   25.88100   19.01300
      O    O553    -6.78000   26.75700   18.94500
      C    C554    -6.28700   23.54200   18.19400
      O    O555    -6.00900   22.64800   17.11400
      C    C556    -7.78700   23.58800   18.40900
      N    N557    -5.13500   25.71700   20.06200
      C    C558    -5.23600   26.55900   21.25200
      C    C559    -4.96800   28.02700   20.93100
      O    O560    -5.71000   28.91500   21.33500
      C    C561    -4.26500   26.09400   22.33400
      O    O562    -4.27000   27.01600   23.40700
      N    N563    -3.89000   28.26100   20.20200
      C    C564    -3.51900   29.58900   19.76500
      C    C565    -4.64500   30.26200   18.97900
      O    O566    -4.99600   31.42100   19.24800
      C    C567    -2.28200   29.48300   18.89600
      O    O568    -1.93200   30.75700   18.41600
      N    N569    -5.21200   29.52700   18.02100
      C    C570    -6.33800   30.02600   17.23500
      C    C571    -7.57200   30.24200   18.10100
      O    O572    -8.21700   31.28500   17.99700
      C    C573    -6.65800   29.09900   16.05500
      C    C574    -5.60700   29.16200   14.93800
      O    O575    -4.80500   30.12200   14.88400
      O    O576    -5.59200   28.23500   14.09400
      N    N577    -7.89300   29.27200   18.95900
      C    C578    -9.01400   29.42900   19.89700
      C    C579    -8.84400   30.69400   20.71400
      O    O580    -9.78300   31.47300   20.84800
      C    C581    -9.20900   28.21500   20.84500
      C    C582    -9.73100   27.00600   20.06700
      C    C583   -10.18000   28.56300   21.98200
      C    C584    -9.74600   25.69200   20.84900
      N    N585    -7.64400   30.90800   21.24300
      C    C586    -7.38000   32.09600   22.04900
      C    C587    -7.44900   33.38000   21.23900
      O    O588    -7.92200   34.39700   21.73500
      C    C589    -6.05100   31.97200   22.79100
      C    C590    -6.01600   30.80300   23.76000
      C    C591    -7.26700   30.71500   24.63100
      O    O592    -7.65300   31.73400   25.24600
      O    O593    -7.85800   29.61700   24.70500
      N    N594    -7.00000   33.32200   19.98900
      C    C595    -7.10200   34.45700   19.07400
      C    C596    -8.54900   34.81600   18.72000
      O    O597    -8.89600   35.99400   18.68500
      C    C598    -6.29600   34.20100   17.81500
      N    N599    -9.38500   33.80700   18.46100
      C    C600   -10.78900   34.02800   18.07800
      C    C601   -11.59600   34.71000   19.19500
      O    O602   -12.39200   35.61200   18.92900
      C    C603   -11.45600   32.72000   17.62100
      O    O604   -11.92900   31.96100   18.71900
      N    N605   -11.37600   34.25700   20.43100
      C    C606   -11.87500   34.88800   21.66900
      C    C607   -10.79400   34.65600   22.73800
      O    O608   -10.56500   33.50400   23.12400
      C    C609   -13.21200   34.25400   22.16000
      O    O610   -13.17600   32.82900   21.96600
      C    C611   -14.42100   34.83900   21.42200
      N    N612   -10.14000   35.69700   23.26200
      C    C613   -10.55900   37.10800   23.26100
      C    C614   -10.70500   37.85000   21.92900
      O    O615   -10.04800   37.53600   20.93500
      C    C616    -9.58500   37.91400   24.14200
      C    C617    -8.26500   38.20200   23.48300
      N    N618    -7.89000   39.47000   23.08600
      C    C619    -7.24200   37.38200   23.13500
      C    C620    -6.69200   39.42000   22.53000
      N    N621    -6.27600   38.16500   22.54700
      N    N622   -11.59100   38.84400   21.95500
      C    C623   -11.62900   39.94500   20.98600
      C    C624   -12.27400   41.17900   21.65100
      O    O625   -13.44800   41.47600   21.40200
      C    C626   -12.32800   39.55400   19.66100
      C    C627   -13.28700   38.34500   19.70500
      C    C628   -14.62800   38.63500   20.37000
      O    O629   -15.03100   37.93800   21.30400
      N    N630   -15.32700   39.66000   19.88600
      N    N631   -11.50600   41.89700   22.50900
      C    C632   -12.04300   43.00300   23.32100
      C    C633   -11.99600   44.37700   22.63400
      O    O634   -12.42900   45.38600   23.20300
      C    C635   -11.14000   42.99500   24.56800
      C    C636    -9.89900   42.19000   24.18200
      C    C637   -10.06500   41.70800   22.76100
