# CIF file generated by openbabel 2.3.2, see http://openbabel.sf.net
data_I
_chemical_name_common '../proteins/pdb/2G38.pdb'
_cell_length_a 40.862
_cell_length_b 46.758
_cell_length_c 283.125
_cell_angle_alpha 90
_cell_angle_beta 90
_cell_angle_gamma 90
_space_group_name_H-M_alt 'P 2 2 21'
_space_group_name_Hall 'P 2c 2'
loop_
    _symmetry_equiv_pos_as_xyz
    'x,y,z'
    '-x,-y,1/2+z'
    '-x,y,1/2-z'
    'x,-y,-z'
loop_
    _atom_site_type_symbol
    _atom_site_label
    _atom_site_Cartn_x
    _atom_site_Cartn_y
    _atom_site_Cartn_z
      N    N1   -14.79700   23.77100  137.76200
      C    C2   -15.29800   23.34900  136.45600
      C    C3   -14.37100   22.33500  135.77600
      O    O4   -13.41700   22.71700  135.09100
      C    C5   -15.40300   24.66800  135.66800
      C    C6   -14.79000   25.74200  136.53800
      C    C7   -14.10800   25.06800  137.68700
      N    N8   -14.65500   21.05000  135.98100
      C    C9   -13.88300   19.97100  135.35400
      C    C10   -13.98200   19.98800  133.82600
      O    O11   -13.02200   19.62200  133.14500
      C    C12   -14.32400   18.59100  135.86100
      C    C13   -14.04300   18.33400  137.33900
      C    C14   -14.29900   16.89300  137.75800
      O    O15   -14.00400   15.97300  136.96400
      O    O16   -14.78200   16.67700  138.89300
      N    N17   -15.13600   20.41800  133.31200
      C    C18   -15.41800   20.48900  131.87200
      C    C19   -14.37600   21.22500  131.02000
      O    O20   -14.17800   20.87200  129.85800
      C    C21   -16.80400   21.09800  131.64100
      N    N22   -13.73400   22.24700  131.58500
      C    C23   -12.67900   22.98900  130.89000
      C    C24   -11.42800   22.14000  130.70300
      O    O25   -10.78200   22.21200  129.65200
      C    C26   -12.30900   24.27300  131.63800
      C    C27   -13.39500   25.34700  131.68800
      C    C28   -12.90500   26.52800  132.51400
      C    C29   -13.80000   25.79500  130.29300
      N    N30   -11.09300   21.35000  131.72200
      C    C31    -9.95700   20.43300  131.64600
      C    C32   -10.27200   19.32700  130.63300
      O    O33    -9.39100   18.93000  129.86600
      C    C34    -9.59500   19.84100  133.02600
      O    O35    -9.63300   20.87300  134.02000
      C    C36    -8.20200   19.22100  133.00300
      N    N37   -11.51800   18.85100  130.62400
      C    C38   -11.98200   17.85800  129.64600
      C    C39   -11.74100   18.38600  128.22400
      O    O40   -11.11100   17.72200  127.39000
      C    C41   -13.48700   17.50800  129.81100
      C    C42   -13.92700   16.43800  128.80900
      C    C43   -13.79500   17.04200  131.22800
      N    N44   -12.25200   19.58600  127.95900
      C    C45   -12.04700   20.25600  126.67800
      C    C46   -10.56100   20.32600  126.31800
      O    O47   -10.19100   19.94200  125.21100
      C    C48   -12.65700   21.65400  126.70100
      N    N49    -9.72700   20.79400  127.24900
      C    C50    -8.27500   20.88200  127.03600
      C    C51    -7.66600   19.55400  126.57000
      O    O52    -6.77500   19.54300  125.71600
      C    C53    -7.56500   21.37800  128.29100
      N    N54    -8.15500   18.44700  127.12800
      C    C55    -7.72200   17.10900  126.72400
      C    C56    -8.15800   16.80200  125.28700
      O    O57    -7.36900   16.25900  124.50900
      C    C58    -8.27800   16.02200  127.67000
      O    O59    -8.12300   16.44500  129.03200
      C    C60    -7.55600   14.69300  127.45900
      N    N61    -9.40300   17.14600  124.95400
      C    C62    -9.94500   16.98700  123.59700
      C    C63    -9.20300   17.79900  122.53100
      O    O64    -8.96000   17.30900  121.42700
      C    C65   -11.42400   17.38500  123.54200
      C    C66   -12.41400   16.26800  123.79300
      C    C67   -13.84100   16.74700  123.59700
      O    O68   -14.38300   17.42600  124.50200
      O    O69   -14.41000   16.43900  122.52500
      N    N70    -8.86700   19.04200  122.86700
      C    C71    -8.12900   19.94100  121.98100
      C    C72    -6.71400   19.39100  121.74800
      O    O73    -6.18500   19.47200  120.63500
      C    C74    -8.12400   21.38800  122.54400
      C    C75    -7.16700   22.28400  121.79700
      C    C76    -9.52600   21.98300  122.48100
      N    N77    -6.11000   18.83400  122.79400
      C    C78    -4.80700   18.18100  122.67300
      C    C79    -4.88500   16.92600  121.80800
      O    O80    -3.95300   16.63900  121.06100
      C    C81    -4.22200   17.84100  124.04600
      C    C82    -3.67400   19.06100  124.76500
      C    C83    -3.51600   18.81400  126.25300
      N    N84    -3.19700   20.06100  126.94800
      C    C85    -3.41000   20.30400  128.24000
      N    N86    -3.96500   19.38800  129.03000
      N    N87    -3.07300   21.48900  128.74400
      N    N88    -5.98200   16.18300  121.90700
      C    C89    -6.17300   15.01700  121.05200
      C    C90    -6.29800   15.42500  119.58200
      O    O91    -5.76600   14.75200  118.69500
      C    C92    -7.41200   14.22300  121.47000
      C    C93    -7.56000   12.96200  120.64000
      C    C94    -8.69300   12.03900  121.04900
      N    N95    -8.70200   10.89600  120.13600
      C    C96    -9.54000    9.86500  120.19000
      N    N97   -10.47900    9.79100  121.12600
      N    N98    -9.42700    8.89200  119.29000
      N    N99    -7.01900   16.51900  119.33900
      C    C100    -7.22100   17.07600  117.99500
      C    C101    -5.88900   17.51900  117.39000
      O    O102    -5.65800   17.32500  116.19400
      C    C103    -8.24900   18.23400  118.02600
      C    C104    -9.64300   17.66000  118.29800
      C    C105    -8.25400   19.02800  116.71800
      C    C106   -10.66100   18.69900  118.71500
      N    N107    -5.03600   18.11200  118.22000
      C    C108    -3.67700   18.48600  117.82900
      C    C109    -2.87800   17.23800  117.45300
      O    O110    -2.25500   17.18600  116.39700
      C    C111    -2.96100   19.20500  118.97400
      C    C112    -1.66100   19.86300  118.56000
      C    C113    -0.54900   19.56200  119.53700
      N    N114     0.02200   18.22300  119.37200
      C    C115     1.26400   17.93500  118.97000
      N    N116     2.15600   18.87900  118.67700
      N    N117     1.64600   16.66300  118.87000
      N    N118    -2.90300   16.23800  118.32700
      C    C119    -2.23900   14.96500  118.06500
      C    C120    -2.66000   14.34300  116.73700
      O    O121    -1.81300   13.82400  116.01700
      C    C122    -2.50800   13.96300  119.19300
      C    C123    -1.82400   14.34000  120.49200
      O    O124    -0.76700   15.00600  120.44100
      O    O125    -2.34800   13.96100  121.56500
      N    N126    -3.95000   14.40000  116.41700
      C    C127    -4.46500   13.83600  115.16600
      C    C128    -4.09000   14.63000  113.91300
      O    O129    -3.94300   14.05500  112.83000
      C    C130    -5.98600   13.67100  115.23800
      C    C131    -6.59800   13.24300  113.91500
      C    C132    -7.97900   12.65100  114.06200
      N    N133    -8.53100   12.34600  112.74200
      C    C134    -9.69700   11.74000  112.52600
      N    N135   -10.46800   11.35000  113.54000
      N    N136   -10.09100   11.51600  111.27600
      N    N137    -3.95500   15.94600  114.04900
      C    C138    -3.58800   16.79400  112.91700
      C    C139    -2.13100   16.54700  112.52800
      O    O140    -1.81800   16.30700  111.35500
      C    C141    -3.82800   18.26600  113.24800
      N    N142    -1.25100   16.58800  113.52600
      C    C143     0.17200   16.36000  113.29700
      C    C144     0.42100   14.90700  112.87200
      O    O145     1.34200   14.66100  112.08800
      C    C146     1.06200   16.79300  114.50500
      C    C147     1.00500   15.79800  115.66900
      C    C148     0.73500   18.22800  114.95300
      C    C149     2.15500   14.78000  115.69200
      N    N150    -0.38500   13.96800  113.37500
      C    C151    -0.27400   12.55400  112.99700
      C    C152    -0.57400   12.32800  111.52100
      O    O153     0.21500   11.69600  110.82300
      C    C154    -1.17600   11.64600  113.83500
      C    C155    -0.53200   11.16700  115.13000
      C    C156    -1.50400   10.40200  116.02000
      O    O157    -2.35600    9.64500  115.53900
      N    N158    -1.37600   10.59800  117.33000
      N    N159    -1.71100   12.83900  111.05700
      C    C160    -2.08400   12.75600  109.64100
      C    C161    -1.09300   13.48900  108.73700
      O    O162    -0.77000   13.01200  107.65100
      C    C163    -3.47000   13.35000  109.41200
      O    O164    -3.49800   14.72600  109.74300
      N    N165    -0.63400   14.65400  109.19300
      C    C166     0.37000   15.44200  108.47900
      C    C167     1.67400   14.65900  108.30900
      O    O168     2.16600   14.49200  107.19200
      C    C169     0.61100   16.76200  109.21800
      C    C170     1.94700   17.39900  108.88500
      O    O171     2.84300   17.38800  109.75700
      O    O172     2.09600   17.89200  107.75000
      N    N173     2.21600   14.18400  109.42400
      C    C174     3.45700   13.40600  109.41900
      C    C175     3.29900   12.10300  108.63500
      O    O176     4.26100   11.60300  108.05500
      C    C177     3.89800   13.10600  110.84500
      N    N178     2.08100   11.56700  108.61900
      C    C179     1.78600   10.32900  107.91700
      C    C180     1.90900   10.45200  106.40600
      O    O181     2.27700    9.47900  105.74500
      C    C182     0.38200    9.81600  108.26700
      C    C183     0.12700    8.38100  107.81200
      C    C184     1.15700    7.42300  108.38200
      O    O185     1.35100    7.36000  109.59200
      N    N186     1.83200    6.68400  107.51000
      N    N187     1.60300   11.62200  105.85500
      C    C188     1.66100   11.80400  104.39800
      C    C189     2.85200   12.61300  103.90000
      O    O190     3.06100   12.68100  102.69000
      C    C191     0.34100   12.38400  103.81800
      C    C192    -0.84700   11.54600  104.29200
      C    C193     0.14900   13.87700  104.13800
      N    N194     3.60500   13.21900  104.81900
      C    C195     4.81800   13.98800  104.51600
      C    C196     5.80200   13.24600  103.60800
      O    O197     6.25300   13.81700  102.61300
      C    C198     5.51200   14.41500  105.80700
      N    N199     6.13800   11.98400  103.93500
      C    C200     7.01300   11.20200  103.06700
      C    C201     6.55800   11.04900  101.62500
      O    O202     7.40900   10.75000  100.80200
      C    C203     7.03900    9.82300  103.74000
      C    C204     5.83300    9.79800  104.56500
      C    C205     5.79200   11.17900  105.11600
      N    N206     5.27200   11.22600  101.31800
      C    C207     4.78800   11.15800   99.94000
      C    C208     4.72500   12.58100   99.35900
      O    O209     5.24400   12.82700   98.27400
      C    C210     3.40500   10.50800   99.81400
      C    C211     2.86600    9.64400  100.96800
      S    S212     3.54400    8.01800  101.31400
      C    C213     3.49400    7.30600   99.67900
      N    N214     4.09500   13.51500  100.07100
      C    C215     3.91400   14.88300   99.57800
      C    C216     5.21300   15.66500   99.36500
      O    O217     5.30500   16.49300   98.45600
      C    C218     3.01300   15.70600  100.51700
      O    O219     3.51700   15.63700  101.85700
      C    C220     1.57800   15.19200  100.48800
      N    N221     6.19800   15.41300  100.22100
      C    C222     7.50600   16.05600  100.13100
      C    C223     8.47200   15.27900   99.22600
      O    O224     9.52800   15.80900   98.88300
      C    C225     8.16200   16.21100  101.52400
      O    O226     8.22300   14.93100  102.16800
      C    C227     7.38100   17.17800  102.39200
      N    N228     8.12500   14.04700   98.84600
      C    C229     8.99400   13.22600   97.99700
      C    C230     8.62700   13.22400   96.50600
      O    O231     9.07000   12.32100   95.78000
      C    C232     9.02300   11.80300   98.52200
      N    N233     7.84400   14.20800   96.05000
      C    C234     7.42500   14.27600   94.64800
      C    C235     8.63100   14.46500   93.72600
      O    O236     9.35300   15.46500   93.82200
      C    C237     6.42200   15.42400   94.34100
      C    C238     6.12200   15.49600   92.84300
      C    C239     5.11500   15.26700   95.12100
      N    N240     8.81300   13.49500   92.83300
      C    C241     9.89500   13.50400   91.85300
      C    C242     9.36800   14.02100   90.52200
      O    O243     8.17500   13.87100   90.24300
      C    C244    10.46700   12.08900   91.67600
      C    C245    10.76900   11.32800   92.97500
      C    C246    11.95900   11.91300   93.71900
      N    N247    11.78900   13.31400   94.10100
      C    C248    12.75400   14.22800   94.15100
      N    N249    14.00500   13.92900   93.84500
      N    N250    12.46300   15.47300   94.50700
      N    N251    10.23400   14.65400   89.71200
      C    C252     9.80600   15.04700   88.36700
      C    C253     9.51300   13.81900   87.49400
      O    O254    10.31000   12.87400   87.50100
      C    C255    11.01000   15.82800   87.81800
      C    C256    11.83200   16.17900   89.00100
      C    C257    11.62200   15.07500   89.97900
      N    N258     8.37300   13.81500   86.77600
      C    C259     7.99500   12.73600   85.84400
      C    C260     9.00900   12.41200   84.74100
      O    O261     9.08500   11.25700   84.31300
      C    C262     6.75000   13.28700   85.14600
      C    C263     6.18800   14.23400   86.05500
      C    C264     7.32900   14.85100   86.83000
      N    N265     9.73100   13.44300   84.29800
      C    C266    10.74000   13.35800   83.25000
      C    C267    11.90500   14.33400   83.47400
      O    O268    11.93400   15.05500   84.46900
      C    C269    10.09200   13.58400   81.89800
      N    N270    12.86300   14.35500   82.54500
      C    C271    14.06700   15.17100   82.70000
      C    C272    13.94700   16.62500   82.24400
      O    O273    14.87900   17.40500   82.41600
      C    C274    15.23400   14.49500   81.97700
      N    N275    12.82600   16.99300   81.64000
      C    C276    12.63300   18.35400   81.16500
      C    C277    12.41200   19.34500   82.30200
      O    O278    12.06900   18.96600   83.41900
      C    C279    11.41800   18.42200   80.24300
      C    C280    10.16100   18.04200   80.95900
      O    O281     9.96200   16.82500   81.17500
      O    O282     9.41400   18.97600   81.31600
      N    N283    12.57200   20.62000   81.96600
      C    C284    12.45100   21.72800   82.90200
      C    C285    11.03900   21.87700   83.48400
      O    O286    10.90700   22.20600   84.67100
      C    C287    12.89400   23.02900   82.22500
      C    C288    13.91200   23.89000   82.97300
      C    C289    15.24900   23.16600   83.10200
      C    C290    14.13400   25.22400   82.25400
      N    N291    10.00000   21.62700   82.68000
      C    C292     8.60600   21.75300   83.14600
      C    C293     8.33800   20.71800   84.23500
      O    O294     7.87000   21.08100   85.30100
      C    C295     7.56000   21.66100   81.98600
      C    C296     6.12200   21.70700   82.50600
      C    C297     7.77000   22.79300   80.97800
      N    N298     8.65100   19.45000   83.97200
      C    C299     8.49900   18.35600   84.94100
      C    C300     9.16700   18.67300   86.28100
      O    O301     8.58400   18.51200   87.36000
      C    C302     9.12700   17.07600   84.38100
      O    O303     8.37300   16.54600   83.30500
      N    N304    10.41200   19.12500   86.17700
      C    C305    11.24000   19.45400   87.33500
      C    C306    10.69500   20.62800   88.12400
      O    O307    10.69200   20.57600   89.35200
      C    C308    12.69300   19.71800   86.90300
      C    C309    13.35500   18.49200   86.27200
      C    C310    14.84300   18.65100   86.01000
      O    O311    15.31600   19.78700   85.76600
      O    O312    15.53300   17.60700   86.04400
      N    N313    10.24100   21.67300   87.43500
      C    C314     9.69400   22.84800   88.11800
      C    C315     8.39300   22.53200   88.84400
      O    O316     8.13100   23.03700   89.93300
      C    C317     9.46300   23.99500   87.13900
      C    C318    10.74400   24.69600   86.70800
      C    C319    10.44900   25.65400   85.56300
      C    C320    11.64700   26.50600   85.18200
      N    N321    11.25000   27.45600   84.10100
      N    N322     7.58100   21.68900   88.21600
      C    C323     6.32700   21.23400   88.79500
      C    C324     6.58900   20.43500   90.08100
      O    O325     5.97200   20.69600   91.12100
      C    C326     5.57000   20.39400   87.78000
      N    N327     7.51200   19.47500   89.99900
      C    C328     7.85400   18.62400   91.13900
      C    C329     8.45000   19.42700   92.29300
      O    O330     8.15200   19.15000   93.45500
      C    C331     8.80300   17.52100   90.72500
      N    N332     9.27100   20.41700   91.95200
      C    C333     9.88400   21.30200   92.93300
      C    C334     8.82700   22.11400   93.66500
      O    O335     8.84800   22.16600   94.89500
      C    C336    10.87300   22.28300   92.27000
      O    O337    11.95800   21.55100   91.68900
      C    C338    11.42400   23.27800   93.27800
      N    N339     7.92900   22.74600   92.91100
      C    C340     6.85700   23.57500   93.46900
      C    C341     6.03600   22.77400   94.46500
      O    O342     5.80300   23.22200   95.59500
      C    C343     5.93900   24.10500   92.36400
      C    C344     4.83000   25.01600   92.84900
      C    C345     4.94800   26.39900   92.74200
      C    C346     3.65500   24.49200   93.39100
      C    C347     3.92500   27.24700   93.16600
      C    C348     2.61900   25.33800   93.82000
      C    C349     2.76000   26.71800   93.70800
      N    N350     5.60300   21.59500   94.02600
      C    C351     4.80900   20.70300   94.87000
      C    C352     5.50600   20.34900   96.18100
      O    O353     4.86200   20.32500   97.23500
      C    C354     4.42300   19.42600   94.11100
      C    C355     3.46500   19.59600   92.92600
      C    C356     3.17900   18.23600   92.27900
      C    C357     2.16900   20.29200   93.34700
      N    N358     6.81100   20.08200   96.11100
      C    C359     7.59600   19.75800   97.30200
      C    C360     7.59100   20.94300   98.26600
      O    O361     7.35600   20.73100   99.46100
      C    C362     9.03400   19.32100   96.96100
      C    C363     9.88800   19.21200   98.22200
      C    C364     9.02700   17.99100   96.22800
      N    N365     7.82000   22.15800   97.75500
      C    C366     7.84000   23.37000   98.59300
      C    C367     6.46500   23.67700   99.16700
      O    O368     6.34500   24.14800  100.29600
      C    C369     8.30100   24.63600   97.85800
      C    C370     9.45400   24.53900   96.86500
      C    C371    10.73600   23.91100   97.38700
      O    O372    10.72700   23.29100   98.47600
      O    O373    11.76800   24.04500   96.68000
      N    N374     5.44100   23.42400   98.36200
      C    C375     4.05200   23.61300   98.76300
      C    C376     3.70300   22.65500   99.91100
      O    O377     3.05300   23.05300  100.88500
      C    C378     3.13600   23.39200   97.55200
      C    C379     1.76600   24.01400   97.65600
      C    C380     1.61600   25.40300   97.64500
      C    C381     0.62100   23.22200   97.74600
      C    C382     0.35600   25.99600   97.73400
      C    C383    -0.65000   23.81100   97.83400
      C    C384    -0.77000   25.19400   97.82600
      O    O385    -2.01700   25.75300   97.90700
      N    N386     4.14300   21.40100   99.80900
      C    C387     3.88100   20.41600  100.86400
      C    C388     4.55800   20.80500  102.17600
      O    O389     4.00600   20.61100  103.26400
      C    C390     4.31800   19.02800  100.42200
      N    N391     5.76000   21.35600  102.04800
      C    C392     6.53800   21.82600  103.18600
      C    C393     5.91200   23.05900  103.83700
      O    O394     5.85600   23.11300  105.06200
      C    C395     7.98700   22.09900  102.77000
      C    C396     8.77200   20.83800  102.45000
      C    C397    10.13400   21.18900  101.91900
      N    N398    10.97000   20.00500  101.71200
      C    C399    11.95200   19.90900  100.81300
      N    N400    12.25100   20.91500   99.99200
      N    N401    12.64400   18.78000  100.72300
      N    N402     5.44600   24.03600  103.06000
      C    C403     4.80200   25.21200  103.65800
      C    C404     3.49600   24.84400  104.36400
      O    O405     3.09400   25.49700  105.33400
      C    C406     4.55600   26.31900  102.63000
      C    C407     5.83800   26.96900  102.12900
      C    C408     5.54800   28.16500  101.23600
      C    C409     6.77700   28.61600  100.43800
      N    N410     7.18200   27.66100   99.36100
      N    N411     2.84900   23.79100  103.86600
      C    C412     1.66400   23.23100  104.50300
      C    C413     2.04100   22.59400  105.83900
      O    O414     1.34500   22.80000  106.83400
      C    C415     0.97100   22.20400  103.60800
      C    C416    -0.12600   21.47800  104.33900
      C    C417    -1.37000   22.07200  104.52200
      C    C418     0.08100   20.20400  104.86500
      C    C419    -2.38200   21.41300  105.20700
      C    C420    -0.92900   19.53600  105.54700
      C    C421    -2.16000   20.14500  105.71300
      O    O422    -3.17100   19.50100  106.39500
      N    N423     3.12500   21.81900  105.86200
      C    C424     3.57800   21.19600  107.10900
      C    C425     3.87000   22.24400  108.18400
      O    O426     3.61100   22.02800  109.36800
      C    C427     4.81700   20.32900  106.90100
      C    C428     4.56000   19.05900  106.09500
      C    C429     5.52300   17.94700  106.46800
      N    N430     5.28400   17.49300  107.84100
      C    C431     6.02700   16.61400  108.51000
      N    N432     7.09900   16.05600  107.96600
      N    N433     5.69700   16.28800  109.75300
      N    N434     4.41200   23.37900  107.75600
      C    C435     4.67400   24.48900  108.66100
      C    C436     3.40100   25.15100  109.16500
      O    O437     3.31300   25.52100  110.33400
      C    C438     5.56500   25.52000  107.97500
      C    C439     6.95000   24.96900  107.73700
      C    C440     7.91400   26.04000  107.31700
      O    O441     7.61600   26.83900  106.43300
      N    N442     9.08200   26.06200  107.94600
      N    N443     2.43200   25.29500  108.26800
      C    C444     1.13600   25.88700  108.57900
      C    C445     0.38200   25.07300  109.63900
      O    O446    -0.24800   25.63800  110.54000
      C    C447     0.31800   26.01600  107.27100
      O    O448     1.04500   26.84600  106.35700
      C    C449    -1.04000   26.63400  107.49000
      N    N450     0.44400   23.75100  109.51600
      C    C451    -0.17800   22.84700  110.47800
      C    C452     0.55300   22.87500  111.81300
      O    O453    -0.08600   22.78800  112.86000
      C    C454    -0.30100   21.38900  109.95900
      C    C455    -0.93900   20.50200  111.02200
      C    C456     1.02700   20.77000  109.63500
      C    C457    -1.21100   19.12500  110.57100
      N    N458     1.87900   22.98900  111.79300
      C    C459     2.63700   23.08200  113.03700
      C    C460     2.22900   24.34200  113.80200
      O    O461     2.15200   24.30900  115.02600
      C    C462     4.12300   23.08100  112.77700
      N    N463     1.97100   25.44000  113.09400
      C    C464     1.49600   26.67800  113.71400
      C    C465     0.07900   26.49800  114.26000
      O    O466    -0.26500   27.02600  115.32000
      C    C467     1.54000   27.83300  112.72700
      N    N468    -0.74700   25.75400  113.53300
      C    C469    -2.08600   25.41700  114.00500
      C    C470    -2.02800   24.50900  115.23600
      O    O471    -2.90100   24.59200  116.10300
      C    C472    -2.90500   24.77000  112.90100
      N    N473    -1.00900   23.65500  115.31600
      C    C474    -0.80200   22.79900  116.48700
      C    C475    -0.44500   23.66400  117.70100
      O    O476    -0.99400   23.45500  118.78300
      C    C477     0.27500   21.76000  116.21400
      N    N478     0.46400   24.62200  117.50600
      C    C479     0.80100   25.64600  118.50600
      C    C480    -0.46900   26.35100  119.01900
      O    O481    -0.69600   26.42100  120.22900
      C    C482     1.82800   26.68400  117.93700
      C    C483     1.85400   27.98900  118.74000
      C    C484     3.22700   26.07800  117.85800
      N    N485    -1.29100   26.85700  118.10300
      C    C486    -2.55200   27.52800  118.45400
      C    C487    -3.45400   26.63500  119.30300
      O    O488    -3.98600   27.08300  120.32300
      C    C489    -3.31400   28.00300  117.19100
      C    C490    -4.76600   28.38800  117.49600
      C    C491    -2.59200   29.18000  116.55600
      N    N492    -3.61700   25.38800  118.86500
      C    C493    -4.41500   24.38100  119.57900
      C    C494    -3.91900   24.13100  120.99100
      O    O495    -4.71700   24.04000  121.92900
      C    C496    -4.43900   23.04500  118.82200
      C    C497    -5.66100   22.70300  117.96100
      C    C498    -6.36900   23.92000  117.38100
      C    C499    -5.26700   21.71100  116.86700
      N    N500    -2.60200   24.02000  121.12900
      C    C501    -1.99500   23.78700  122.43200
      C    C502    -2.12100   25.00500  123.33500
      O    O503    -2.42000   24.84700  124.51400
      C    C504    -0.52300   23.41500  122.28900
      C    C505    -0.25900   22.08900  121.61400
      C    C506     1.21100   21.71800  121.67700
      O    O507     1.80600   21.38000  120.63100
      O    O508     1.78000   21.78800  122.78300
      N    N509    -1.88500   26.19700  122.78900
      C    C510    -2.05100   27.43900  123.54200
      C    C511    -3.49500   27.56300  124.03200
      O    O512    -3.74100   27.93000  125.18400
      C    C513    -1.65200   28.65800  122.70600
      C    C514    -0.15200   28.75000  122.47100
      C    C515     0.29800   29.99100  121.70900
      O    O516    -0.52800   30.68200  121.06900
      O    O517     1.51800   30.26900  121.74900
      N    N518    -4.44400   27.23500  123.15800
      C    C519    -5.86700   27.23900  123.50900
      C    C520    -6.18400   26.24000  124.61700
      O    O521    -6.90400   26.59000  125.55000
      C    C522    -6.72600   26.96400  122.27100
      C    C523    -8.20900   26.88100  122.54100
      C    C524    -8.85000   27.81500  123.35400
      C    C525    -8.97100   25.87400  121.95700
      C    C526   -10.21500   27.74300  123.58500
      C    C527   -10.33300   25.79400  122.18100
      C    C528   -10.96300   26.73100  122.99700
      N    N529    -5.66300   25.01900  124.52900
      C    C530    -5.89900   24.01500  125.57400
      C    C531    -5.27600   24.44700  126.90500
      O    O532    -5.82500   24.17700  127.97800
      C    C533    -5.36500   22.65400  125.15700
      N    N534    -4.13000   25.12100  126.82500
      C    C535    -3.46600   25.68200  128.00300
      C    C536    -4.29600   26.81700  128.61700
      O    O537    -4.31400   26.97200  129.83600
      C    C538    -2.06100   26.17900  127.65300
      C    C539    -1.32000   26.76100  128.81600
      N    N540    -1.29100   28.11400  129.07500
      C    C541    -0.59600   26.17200  129.79800
      C    C542    -0.57300   28.33600  130.16200
      N    N543    -0.13800   27.17500  130.61900
      N    N544    -4.97500   27.60300  127.78100
      C    C545    -5.87200   28.65600  128.26100
      C    C546    -7.08500   28.06700  128.98200
      O    O547    -7.70100   28.73800  129.81400
      C    C548    -6.32800   29.54600  127.12100
      N    N549    -7.43200   26.82400  128.65200
      C    C550    -8.50900   26.11000  129.32700
      C    C551    -8.05100   25.52400  130.65900
      O    O552    -8.81900   25.52900  131.61800
      C    C553    -9.04900   24.98100  128.44900
      C    C554    -9.66100   25.32000  127.09300
      C    C555    -9.92300   24.02100  126.33900
      C    C556   -10.93900   26.12500  127.23000
      N    N557    -6.82100   25.01700  130.72800
      C    C558    -6.33400   24.38800  131.95800
      C    C559    -5.89800   25.42500  132.98800
      O    O560    -6.49500   25.48600  134.06100
      C    C561    -5.22000   23.34200  131.69000
      O    O562    -5.79600   22.19900  131.04000
      C    C563    -4.56200   22.87300  132.98700
      N    N564    -4.87800   26.22900  132.68400
      C    C565    -4.44000   27.26500  133.62700
      C    C566    -5.52900   28.32100  133.79400
      O    O567    -5.64700   28.91300  134.86800
      C    C568    -3.10200   27.93100  133.26500
      O    O569    -3.23300   28.63700  132.02400
      C    C570    -1.98900   26.88200  133.19900
      N    N571    -6.33100   28.54600  132.75600
      C    C572    -7.52500   29.37700  132.89200
      C    C573    -8.69900   28.57200  133.44100
      O    O574    -9.78800   28.58700  132.86400
      N    N575    -8.48200   27.86300  134.55000
      C    C576    -9.52400   27.09000  135.23800
      C    C577    -9.10600   26.75800  136.67600
      O    O578    -9.92400   26.86400  137.59300
      C    C579    -9.87400   25.81500  134.47700
