# CIF file generated by openbabel 2.3.2, see http://openbabel.sf.net
data_I
_chemical_name_common '../proteins/pdb/2ISZ.pdb'
_cell_length_a 53.832
_cell_length_b 69.739
_cell_length_c 76.461
_cell_angle_alpha 106.57
_cell_angle_beta 104.85
_cell_angle_gamma 99.66
_space_group_name_H-M_alt 'P 1'
_space_group_name_Hall 'P 1'
loop_
    _symmetry_equiv_pos_as_xyz
    'x,y,z'
loop_
    _atom_site_type_symbol
    _atom_site_label
    _atom_site_Cartn_x
    _atom_site_Cartn_y
    _atom_site_Cartn_z
      O    O1   -34.89300   -5.03200   26.53100
      C    C2   -34.93400   -3.87600   27.35700
      C    C3   -34.24400   -4.16300   28.67600
      O    O4   -34.41000   -5.55600   29.02300
      C    C5   -32.73000   -4.05500   28.67100
      O    O6   -32.30800   -2.70400   28.71200
      C    C7   -32.38700   -4.77400   29.96800
      C    C8   -33.47600   -5.84200   30.04600
      N    N9   -32.96100   -7.23700   29.90600
      C    C10   -32.23800   -7.78200   30.97000
      O    O11   -32.05200   -7.08800   31.97600
      N    N12   -31.76500   -9.04800   30.87600
      C    C13   -31.99200   -9.75700   29.77400
      N    N14   -31.50300  -11.00000   29.73200
      C    C15   -32.72800   -9.22000   28.67400
      C    C16   -33.19100   -7.96800   28.77800
      P    P17   -31.04100   -2.26300   27.83600
      O    O18   -30.95100   -0.78100   27.87100
      O    O19   -31.14800   -2.97200   26.53800
      O    O20   -29.80000   -2.85800   28.65700
      C    C21   -29.07700   -2.00200   29.53200
      C    C22   -28.95900   -2.62300   30.90900
      O    O23   -29.71700   -3.85400   30.96000
      C    C24   -27.54400   -3.02400   31.28900
      O    O25   -26.89100   -1.91600   31.89300
      C    C26   -27.75800   -4.16300   32.27800
      C    C27   -29.04000   -4.80900   31.75900
      N    N28   -28.85400   -6.06200   30.94600
      C    C29   -28.16100   -7.16500   31.47000
      O    O30   -27.67600   -7.11400   32.60600
      N    N31   -28.03300   -8.27800   30.71000
      C    C32   -28.55900   -8.32000   29.48400
      N    N33   -28.39800   -9.44500   28.77800
      C    C34   -29.26900   -7.21300   28.93100
      C    C35   -29.39100   -6.12000   29.69100
      P    P36   -25.60300   -1.29100   31.17200
      O    O37   -25.50500    0.13600   31.55600
      O    O38   -25.66600   -1.67500   29.73800
      O    O39   -24.40000   -2.08900   31.86300
      C    C40   -24.53900   -2.55900   33.20000
      C    C41   -23.81000   -3.87700   33.35800
      O    O42   -24.60900   -4.93800   32.79900
      C    C43   -22.50400   -3.95300   32.58300
      O    O44   -21.44300   -3.49500   33.40400
      C    C45   -22.34200   -5.43600   32.25000
      C    C46   -23.74400   -5.99900   32.44100
      N    N47   -24.27100   -6.67600   31.22500
      C    C48   -23.89800   -8.00400   30.99800
      O    O49   -23.13900   -8.55500   31.80900
      N    N50   -24.38100   -8.64100   29.89800
      C    C51   -25.19600   -7.99800   29.05700
      N    N52   -25.64000   -8.67000   27.98900
      C    C53   -25.58500   -6.63800   29.27300
      C    C54   -25.10700   -6.02200   30.36200
      P    P55   -20.16200   -2.83800   32.71900
      O    O56   -19.32100   -2.28000   33.79600
      O    O57   -20.65000   -2.00000   31.59500
      O    O58   -19.38400   -4.09600   32.12200
      C    C59   -18.74500   -5.00500   32.99900
      C    C60   -18.10800   -6.10500   32.17800
      O    O61   -19.14900   -6.84300   31.48700
      C    C62   -17.15500   -5.59300   31.10400
      O    O63   -15.93000   -6.29700   31.18700
      C    C64   -17.88200   -5.87000   29.79200
      C    C65   -18.74100   -7.07300   30.15500
      N    N66   -19.93000   -7.24200   29.25400
      C    C67   -20.17900   -8.48600   28.71500
      O    O68   -19.49000   -9.46400   28.93700
      N    N69   -21.27700   -8.54500   27.89800
      C    C70   -22.12700   -7.50800   27.56900
      O    O71   -23.08400   -7.65900   26.81700
      C    C72   -21.81400   -6.23300   28.15900
      C    C73   -22.56600   -5.01400   27.70700
      C    C74   -20.74500   -6.15900   28.96600
      P    P75   -14.65000   -5.80400   30.36500
      O    O76   -13.43900   -6.24200   31.09600
      O    O77   -14.82600   -4.38500   29.99500
      O    O78   -14.77700   -6.71000   29.05400
      C    C79   -14.71100   -8.13000   29.26100
      C    C80   -15.11600   -8.94900   28.04800
      O    O81   -16.51800   -8.74200   27.75000
      C    C82   -14.34800   -8.64500   26.76100
      O    O83   -13.40000   -9.70400   26.50200
      C    C84   -15.44900   -8.56400   25.70500
      C    C85   -16.68000   -9.12700   26.41100
      N    N86   -17.91500   -8.56700   25.87100
      C    C87   -18.32600   -7.25500   25.90400
      N    N88   -19.47300   -7.06500   25.31500
      C    C89   -19.84500   -8.32600   24.86100
      C    C90   -20.99200   -8.74700   24.15000
      O    O91   -21.95000   -8.06900   23.76200
      N    N92   -20.96500  -10.11400   23.89200
      C    C93   -19.95500  -10.97000   24.26900
      N    N94   -20.09300  -12.26000   23.93400
      N    N95   -18.87700  -10.58900   24.93600
      C    C96   -18.89300   -9.25900   25.19400
      P    P97   -12.50900   -9.76600   25.16500
      O    O98   -11.09300   -9.88500   25.56800
      O    O99   -12.92400   -8.67000   24.25300
      O    O100   -12.91800  -11.17700   24.52700
      C    C101   -14.02300  -11.92000   25.01300
      C    C102   -14.58400  -12.81800   23.92900
      O    O103   -15.91500  -12.36200   23.58000
      C    C104   -13.77400  -12.84200   22.63300
      O    O105   -13.77200  -14.15000   22.08700
      C    C106   -14.54400  -11.88100   21.73700
      C    C107   -15.98100  -12.12000   22.19400
      N    N108   -16.84100  -10.94200   21.94700
      C    C109   -18.02800  -11.10700   21.27700
      O    O110   -18.42400  -12.18600   20.88300
      N    N111   -18.74000   -9.94900   21.08900
      C    C112   -18.38500   -8.67200   21.49100
      O    O113   -19.09800   -7.70300   21.26900
      C    C114   -17.12600   -8.57300   22.18200
      C    C115   -16.63400   -7.24900   22.69000
      C    C116   -16.42400   -9.69700   22.37000
      P    P117   -12.64200  -14.62400   21.05100
      O    O118   -12.14900  -15.93500   21.54400
      O    O119   -11.69900  -13.50000   20.81500
      O    O120   -13.47000  -14.90900   19.71700
      C    C121   -14.73900  -15.53700   19.83000
      C    C122   -15.40200  -15.57200   18.47100
      O    O123   -16.37800  -14.50200   18.38000
      C    C124   -14.44000  -15.40400   17.29400
      O    O125   -14.82700  -16.36500   16.29600
      C    C126   -14.64700  -13.94200   16.88500
      C    C127   -16.11900  -13.71800   17.23300
      N    N128   -16.47000  -12.31100   17.55900
      C    C129   -17.69800  -11.80800   17.18400
      O    O130   -18.53500  -12.45000   16.58900
      N    N131   -17.92500  -10.50500   17.53500
      C    C132   -17.05600   -9.67500   18.21800
      O    O133   -17.35300   -8.51700   18.48400
      C    C134   -15.78300  -10.25900   18.58200
      C    C135   -14.69100   -9.40500   19.15800
      C    C136   -15.55800  -11.53500   18.24100
      P    P137   -14.26500  -16.41900   14.78700
      O    O138   -14.42700  -17.81800   14.33000
      O    O139   -12.92800  -15.76400   14.74500
      O    O140   -15.34200  -15.53200   13.97700
      C    C141   -16.69800  -15.96200   13.85200
      C    C142   -17.47500  -15.11400   12.85700
      O    O143   -17.81200  -13.83300   13.45600
      C    C144   -16.71900  -14.80100   11.56400
      O    O145   -17.59900  -14.93300   10.45600
      C    C146   -16.24500  -13.36100   11.75800
      C    C147   -17.37900  -12.78100   12.60500
      N    N148   -16.98300  -11.61200   13.39500
      C    C149   -15.84800  -11.45000   14.14200
      N    N150   -15.76000  -10.28200   14.73500
      C    C151   -16.91900   -9.62200   14.34500
      C    C152   -17.44100   -8.33800   14.62600
      N    N153   -16.83700   -7.44100   15.40900
      N    N154   -18.62500   -8.00000   14.07600
      C    C155   -19.24000   -8.88900   13.29400
      N    N156   -18.85300  -10.12400   12.95800
      C    C157   -17.67600  -10.43200   13.51800
      P    P158   -17.05600  -14.92600    8.95000
      O    O159   -17.91500  -15.87200    8.19000
      O    O160   -15.58700  -15.07100    8.93900
      O    O161   -17.40400  -13.44100    8.46700
      C    C162   -18.76600  -12.98800    8.41400
      C    C163   -18.77900  -11.51700    8.04900
      O    O164   -18.38800  -10.71600    9.20000
      C    C165   -17.78300  -11.16500    6.94900
      O    O166   -18.36700  -10.26500    6.03100
      C    C167   -16.66400  -10.48200    7.72000
      C    C168   -17.50300   -9.72700    8.73900
      N    N169   -16.69100   -9.13700    9.79600
      C    C170   -15.49600   -9.61700   10.28200
      N    N171   -14.96700   -8.86700   11.21000
      C    C172   -15.86800   -7.81200   11.34200
      C    C173   -15.83300   -6.68700   12.20000
      O    O174   -14.96600   -6.38700   13.02800
      N    N175   -16.94100   -5.86200   12.01800
      C    C176   -17.96100   -6.09700   11.11800
      N    N177   -18.95500   -5.19800   11.07200
      N    N178   -18.00100   -7.15500   10.31200
      C    C179   -16.92900   -7.96500   10.47600
      P    P180   -17.90500  -10.31200    4.51400
      O    O181   -19.01500  -10.96500    3.80300
      O    O182   -16.53700  -10.85400    4.47800
      O    O183   -17.84100   -8.82000    3.96100
      C    C184   -16.91600   -7.91100    4.53300
      C    C185   -17.68000   -6.76600    5.17200
      O    O186   -17.70400   -6.87800    6.62900
      C    C187   -17.09400   -5.40500    4.86800
      O    O188   -17.64400   -4.97500    3.65100
      C    C189   -17.61200   -4.60100    6.05200
      C    C190   -17.53200   -5.59800    7.20200
      N    N191   -16.25400   -5.60700    7.97400
      C    C192   -15.97900   -4.56700    8.88000
      O    O193   -16.78900   -3.63900    9.01700
      N    N194   -14.81900   -4.59400    9.58700
      C    C195   -13.96400   -5.60300    9.42600
      N    N196   -12.84700   -5.56200   10.15000
      C    C197   -14.21900   -6.67600    8.51700
      C    C198   -15.36400   -6.64000    7.81800
      P    P199   -17.03100   -3.71600    2.88400
      O    O200   -17.85900   -3.44900    1.69100
      O    O201   -15.56100   -3.89800    2.74300
      O    O202   -17.22800   -2.52700    3.93800
      C    C203   -18.41600   -1.75700    4.04200
      C    C204   -18.04400   -0.51700    4.82300
      O    O205   -17.46700   -0.94700    6.07500
      C    C206   -16.96200    0.30000    4.14200
      O    O207   -17.54300    1.36000    3.38900
      C    C208   -16.12100    0.85200    5.28600
      C    C209   -16.37500   -0.11900    6.43300
      N    N210   -15.23500   -0.96800    6.79900
      C    C211   -14.95700   -2.23700    6.35600
      N    N212   -13.86500   -2.76100    6.87200
      C    C213   -13.39600   -1.76500    7.72100
      C    C214   -12.27600   -1.68300    8.57800
      N    N215   -11.37700   -2.65300    8.72400
      N    N216   -12.10300   -0.54600    9.28000
      C    C217   -12.99400    0.44500    9.13900
      N    N218   -14.08300    0.48200    8.37800
      C    C219   -14.22900   -0.65700    7.68300
      P    P220   -16.63200    1.99600    2.23400
      O    O221   -17.50000    2.76800    1.32300
      O    O222   -15.75200    0.92600    1.71100
      O    O223   -15.70400    3.00600    3.05600
      C    C224   -16.24000    3.94100    3.98600
      C    C225   -15.08500    4.67100    4.63400
      O    O226   -14.32300    3.70400    5.39900
      C    C227   -14.10300    5.27600    3.63600
      O    O228   -13.86000    6.61500    4.01200
      C    C229   -12.83800    4.40500    3.72000
      C    C230   -12.93900    3.86300    5.14400
      N    N231   -12.27500    2.54600    5.35800
      C    C232   -11.21700    2.41300    6.27300
      O    O233   -10.82000    3.38400    6.91900
      N    N234   -10.63700    1.21300    6.44900
      C    C235   -11.07100    0.17000    5.74800
      N    N236   -10.46800   -1.00300    5.95100
      C    C237   -12.14700    0.28100    4.81900
      C    C238   -12.71700    1.47600    4.65700
      P    P239   -12.80400    7.49300    3.18500
      O    O240   -13.18900    8.91800    3.32300
      O    O241   -12.66900    6.90900    1.83600
      O    O242   -11.45600    7.31400    4.02700
      C    C243   -11.46100    7.68900    5.39900
      C    C244   -10.05100    7.78500    5.94600
      O    O245    -9.51200    6.45400    6.13100
      C    C246    -9.05000    8.51700    5.06200
      O    O247    -8.24300    9.26500    5.93800
      C    C248    -8.28100    7.39200    4.35700
      C    C249    -8.27800    6.31100    5.44000
      N    N250    -8.26700    4.91200    5.01700
      C    C251    -9.06400    4.34500    4.05800
      N    N252    -8.86500    3.05400    3.90300
      C    C253    -7.88000    2.74800    4.83300
      C    C254    -7.23400    1.54000    5.16100
      N    N255    -7.51400    0.38300    4.55500
      N    N256    -6.29100    1.57200    6.13200
      C    C257    -6.02600    2.74200    6.72700
      N    N258    -6.57500    3.94200    6.49900
      C    C259    -7.50300    3.88000    5.53200
      P    P260    -7.15600   10.32300    5.43300
      O    O261    -6.85400   11.16800    6.60900
      O    O262    -7.59600   10.92200    4.16200
      O    O263    -5.85100    9.44300    5.20100
      C    C264    -5.26200    8.83400    6.35700
      C    C265    -4.14600    7.91000    5.93800
      O    O266    -4.72100    6.69500    5.40500
      C    C267    -3.24200    8.45500    4.83200
      O    O268    -1.90900    8.13400    5.16100
      C    C269    -3.68200    7.68100    3.59600
      C    C270    -3.91300    6.35200    4.29800
      N    N271    -4.53000    5.29000    3.51300
      C    C272    -5.50600    5.38100    2.54700
      N    N273    -5.83400    4.21400    2.04500
      C    C274    -5.02100    3.30300    2.72200
      C    C275    -4.90900    1.89700    2.61200
      O    O276    -5.53800    1.14200    1.85800
      N    N277    -3.95500    1.37200    3.49000
      C    C278    -3.20500    2.12000    4.36300
      N    N279    -2.32600    1.47700    5.13200
      N    N280    -3.30200    3.43200    4.47500
      C    C281    -4.22000    3.95500    3.62500
      P    P282    -0.79800    9.27600    5.34400
      O    O283    -0.70900    9.60500    6.77400
      O    O284    -1.03200   10.34600    4.34800
      O    O285     0.54400    8.46000    4.98000
      C    C286     0.64600    7.72500    3.75800
      C    C287     1.10500    6.29000    3.97200
      O    O288    -0.04100    5.41100    4.04400
      C    C289     1.89700    5.70100    2.81900
      O    O290     3.23400    6.08000    2.93600
      C    C291     1.76100    4.22000    3.11300
      C    C292     0.31500    4.12400    3.57500
      N    N293    -0.60900    3.71500    2.51800
      C    C294    -1.53900    4.50300    1.87400
      N    N295    -2.22900    3.85200    0.97300
      C    C296    -1.72100    2.55200    1.00800
      C    C297    -2.06200    1.40000    0.25700
      O    O298    -2.92200    1.27300   -0.61900
      N    N299    -1.29300    0.28900    0.60400
      C    C300    -0.31600    0.29000    1.56100
      N    N301     0.31000   -0.86900    1.75700
      N    N302     0.01700    1.35100    2.27900
      C    C303    -0.71900    2.45100    1.95300
      P    P304     4.16600    6.26200    1.65400
      O    O305     5.42200    6.88300    2.11200
      O    O306     3.36100    6.87700    0.58000
      O    O307     4.49400    4.75600    1.20400
      C    C308     5.15500    3.83200    2.08300
      C    C309     5.02000    2.41700    1.55600
      O    O310     3.61700    2.04000    1.47200
      C    C311     5.57300    2.18400    0.14900
      O    O312     6.97100    1.95200    0.19600
      C    C313     4.82300    0.92500   -0.26900
      C    C314     3.47000    1.07700    0.42800
      N    N315     2.36500    1.50900   -0.45800
      C    C316     1.73400    0.59000   -1.30600
      O    O317     2.11200   -0.58500   -1.32900
      N    N318     0.71300    1.01100   -2.09000
      C    C319     0.32100    2.28500   -2.03800
      N    N320    -0.68900    2.65000   -2.83000
      C    C321     0.94900    3.24600   -1.19100
      C    C322     1.95200    2.81100   -0.42000
      P    P323     7.94700    2.18800   -1.06200
      O    O324     9.33900    2.11700   -0.57200
      O    O325     7.51100    3.36000   -1.85900
      O    O326     7.66200    0.85800   -1.89800
      C    C327     7.90400   -0.42600   -1.30000
      C    C328     7.61200   -1.51200   -2.31900
      O    O329     6.21400   -1.41500   -2.69700
      C    C330     8.42100   -1.38100   -3.61000
      O    O331     8.87900   -2.68000   -4.01800
      C    C332     7.43400   -0.74000   -4.59300
      C    C333     6.09700   -1.28100   -4.10300
      N    N334     4.94400   -0.38900   -4.41900
      C    C335     3.86700   -0.86200   -5.14800
      O    O336     3.77300   -2.00800   -5.56700
      N    N337     2.87800    0.06700   -5.36900
      C    C338     2.86800    1.39000   -4.94800
      O    O339     1.94800    2.16400   -5.19000
      C    C340     4.02100    1.81100   -4.20400
      C    C341     4.22100    3.26000   -3.92200
      C    C342     4.98800    0.91700   -3.97900
      P    P343     9.79200   -2.97800   -5.31900
      O    O344    10.53300   -4.22800   -5.01700
      O    O345    10.53400   -1.76800   -5.74900
      O    O346     8.67700   -3.36800   -6.39000
      C    C347     7.89600   -4.53400   -6.20800
      C    C348     7.08800   -4.79000   -7.46700
      O    O349     6.03200   -3.79700   -7.59400
      C    C350     7.88000   -4.70900   -8.76200
      O    O351     7.42300   -5.79500   -9.56100
      C    C352     7.46000   -3.35500   -9.35500
      C    C353     6.01000   -3.22800   -8.88000
      N    N354     5.47900   -1.86700   -8.72000
      C    C355     6.09400   -0.85100   -8.03200
      N    N356     5.41800    0.26300   -8.01200
      C    C357     4.27300   -0.02000   -8.73900
      C    C358     3.16400    0.82100   -9.05100
      O    O359     3.00100    2.00400   -8.73100
      N    N360     2.18900    0.16700   -9.80000
      C    C361     2.28100   -1.14600  -10.19600
      N    N362     1.25200   -1.62200  -10.91600
      N    N363     3.31700   -1.94000   -9.90100
      C    C364     4.28600   -1.32500   -9.17600
      P    P365     8.16400   -6.22200  -10.91500
      O    O366     7.73700   -7.61600  -11.13300
      O    O367     9.59100   -5.83900  -10.87500
      O    O368     7.48900   -5.27900  -12.01400
      C    C369     6.14300   -5.59100  -12.37100
      C    C370     5.63100   -4.60000  -13.38600
      O    O371     5.32800   -3.37000  -12.69600
      C    C372     6.63900   -4.19000  -14.44700
      O    O373     5.89000   -3.95700  -15.59300
      C    C374     7.15700   -2.84300  -13.96300
      C    C375     5.81600   -2.31600  -13.49500
      N    N376     5.86400   -1.05600  -12.71100
      C    C377     4.74100   -0.20200  -12.72400
      O    O378     3.74100   -0.53400  -13.37400
      N    N379     4.78300    0.95600  -12.02100
      C    C380     5.88000    1.27300  -11.32300
      N    N381     5.88400    2.42000  -10.62400
      C    C382     7.02400    0.41500  -11.30300
      C    C383     6.98000   -0.73100  -11.99900
      P    P384     6.00500   -4.82600  -16.92800
      O    O385     4.87300   -5.76500  -16.91800
      O    O386     7.39000   -5.34900  -17.05900
      O    O387     5.82400   -3.61600  -17.99800
      C    C388     4.55800   -3.28500  -18.55300
      C    C389     4.14100   -1.80200  -18.53600
      O    O390     4.16600   -1.25700  -17.19200
      C    C391     4.91600   -0.71600  -19.29400
      O    O392     4.83800   -0.76600  -20.71500
      C    C393     4.08600    0.46300  -18.81400
      C    C394     3.87200    0.12100  -17.34000
      N    N395     4.71200    0.95600  -16.42400
      C    C396     4.27500    2.25300  -16.13200
      O    O397     3.21400    2.65500  -16.64100
      N    N398     5.02300    3.02900  -15.30400
      C    C399     6.15300    2.55200  -14.78300
      N    N400     6.85300    3.35400  -13.96900
      C    C401     6.61300    1.23600  -15.07700
      C    C402     5.87300    0.48000  -15.89500
      P    P403     5.72400    0.22300  -21.63900
      O    O404     5.83800   -0.39200  -22.98400
      O    O405     6.96000    0.58400  -20.92400
      O    O406     4.85500    1.56700  -21.80300
      C    C407     3.43600    1.62000  -21.87400
      C    C408     2.97800    3.06700  -21.72400
      O    O409     3.09500    3.45500  -20.33500
      C    C410     3.82300    4.09200  -22.46900
      O    O411     3.34300    4.26600  -23.77900
      C    C412     3.64100    5.36800  -21.65300
      C    C413     3.46900    4.82400  -20.24100
      N    N414     4.65700    4.96400  -19.32800
      C    C415     4.82100    6.17100  -18.64500
      O    O416     3.99800    7.07400  -18.84200
      N    N417     5.86600    6.33000  -17.79600
      C    C418     6.72600    5.33800  -17.60800
      N    N419     7.72800    5.57700  -16.75900
      C    C420     6.58700    4.08300  -18.28900
      C    C421     5.54900    3.93700  -19.13100
      P    P422     4.24200    4.98700  -24.90500
      O    O423     3.58200    4.66200  -26.18800
      O    O424     5.65800    4.66100  -24.67400
      O    O425     4.07600    6.55500  -24.64800
      C    C426     2.76700    7.13600  -24.56900
      C    C427     2.87700    8.63200  -24.34800
      O    O428     3.42500    8.92600  -23.03700
      C    C429     3.77400    9.34500  -25.35100
      O    O430     3.18500   10.58700  -25.61500
      C    C431     5.07400    9.55500  -24.59700
      C    C432     4.59200    9.71700  -23.16000
      N    N433     5.59500    9.19900  -22.19800
      C    C434     6.05000    9.99700  -21.17600
      O    O435     5.67200   11.14000  -21.00900
      N    N436     6.97700    9.39800  -20.35500
      C    C437     7.47500    8.11000  -20.46000
      O    O438     8.30300    7.67700  -19.67000
      C    C439     6.95000    7.33200  -21.55300
      C    C440     7.29000    5.88300  -21.72100
      C    C441     6.05500    7.90900  -22.35500
      P    P442     3.66100   11.49500  -26.84200
      O    O443     2.38700   12.01100  -27.39400
      O    O444     4.61900   10.72400  -27.67800
      O    O445     4.43900   12.71200  -26.15400
      C    C446     4.12300   13.06900  -24.82000
      C    C447     4.90400   14.30000  -24.42400
      O    O448     5.90200   13.95100  -23.43200
      C    C449     5.65700   14.95600  -25.57400
      O    O450     5.63800   16.38000  -25.36000
      C    C451     7.04300   14.30800  -25.48800
      C    C452     7.20600   14.03600  -23.98800
      N    N453     7.93000   12.80200  -23.64700
      C    C454     7.96100   11.62600  -24.34800
      N    N455     8.70000   10.70200  -23.78200
      C    C456     9.19300   11.30800  -22.63300
      C    C457    10.03700   10.86500  -21.59200
      N    N458    10.57300    9.64600  -21.53100
      N    N459    10.33200   11.73000  -20.60100
      C    C460     9.80300   12.95700  -20.64700
      N    N461     8.99300   13.47800  -21.56500
      C    C462     8.72400   12.59900  -22.53700
      P    P463     6.62100   17.38000  -26.14100
      O    O464     6.11300   18.75900  -25.94900
      O    O465     6.85100   16.83400  -27.50300
      O    O466     7.97100   17.27800  -25.28700
      C    C467     8.00600   17.72500  -23.93800
      C    C468     9.45300   17.74300  -23.48100
      O    O469     9.88200   16.37400  -23.22400
      C    C470    10.45000   18.28800  -24.50600
      O    O471    11.51100   18.93500  -23.81500
      C    C472    10.97800   17.01000  -25.15500
      C    C473    11.12800   16.18300  -23.88100
      N    N474    11.40200   14.75600  -24.07200
      C    C475    10.94500   13.96900  -25.09400
      N    N476    11.34200   12.72300  -25.01300
      C    C477    12.11200   12.69000  -23.85900
      C    C478    12.81800   11.64600  -23.22800
      N    N479    12.84400   10.40300  -23.70900
      N    N480    13.48800   11.93200  -22.09600
      C    C481    13.44700   13.18500  -21.63100
      N    N482    12.81400   14.25000  -22.13500
      C    C483    12.15900   13.93300  -23.26500
      P    P484    12.11400   20.34200  -24.28500
      O    O485    12.17600   21.15900  -23.05100
      O    O486    11.38800   20.80200  -25.50000
      O    O487    13.61300   20.01400  -24.72400
      C    C488    14.12100   18.70600  -24.58800
      C    C489    14.74100   18.48600  -23.22600
      O    O490    14.49900   17.10200  -22.87900
      C    C491    16.25300   18.67200  -23.24000
      O    O492    16.79000   19.20200  -22.03400
      C    C493    16.78800   17.26600  -23.49600
      C    C494    15.68800   16.34700  -22.98700
      N    N495    15.48800   15.17900  -23.89100
      C    C496    15.98900   13.96400  -23.47900
      O    O497    16.55600   13.82200  -22.41500
      N    N498    15.79300   12.92100  -24.34500
      C    C499    15.15700   12.97000  -25.57100
      O    O500    15.03100   11.96800  -26.27300
      C    C501    14.65900   14.27900  -25.95800
      C    C502    13.85900   14.44000  -27.21800
      C    C503    14.85200   15.31000  -25.11000
      P    P504    18.29900   19.74800  -22.12600
      O    O505    18.52300   20.76700  -21.07500
      O    O506    18.56800   20.05200  -23.55300
      O    O507    19.16000   18.45500  -21.72800
      C    C508    18.82100   17.72900  -20.54900
      C    C509    19.72100   16.51800  -20.43200
      O    O510    19.30500   15.46100  -21.33500
      C    C511    21.17700   16.81600  -20.74800
      O    O512    21.91400   16.28200  -19.65600
      C    C513    21.43000   16.11700  -22.08700
      C    C514    20.41700   14.97900  -22.05800
      N    N515    19.90500   14.49900  -23.38900
      C    C516    19.95500   13.15100  -23.65600
      O    O517    20.41100   12.34100  -22.86700
      N    N518    19.45000   12.79400  -24.88400
      C    C519    18.91200   13.62800  -25.85400
      O    O520    18.48600   13.21500  -26.93400
      C    C521    18.88300   15.02100  -25.50900
      C    C522    18.30600   16.01000  -26.47600
      C    C523    19.37100   15.38300  -24.31200
      P    P524    23.49500   16.43900  -19.52300
      O    O525    23.84300   16.51800  -18.08400
      O    O526    23.98100   17.45700  -20.48400
      O    O527    23.91400   15.00500  -20.07300
      C    C528    23.69300   13.85900  -19.26400
      C    C529    24.14500   12.61800  -20.01000
      O    O530    23.53000   12.61200  -21.31300
      C    C531    25.64900   12.50800  -20.25800
      O    O532    26.08000   11.23400  -19.75700
      C    C533    25.80800   12.65200  -21.77500
      C    C534    24.46400   12.12300  -22.25100
      N    N535    23.92300   12.55200  -23.56700
      C    C536    23.61700   11.58500  -24.49500
      O    O537    23.80900   10.40000  -24.30800
      N    N538    23.08300   12.05400  -25.66800
      C    C539    22.82300   13.37300  -25.98900
      O    O540    22.34500   13.69500  -27.06900
      C    C541    23.15600   14.33700  -24.97200
      C    C542    23.16900   15.79600  -25.31700
      C    C543    23.67300   13.88400  -23.81700
      P    P544    27.63200   10.85400  -19.59500
      O    O545    27.76100    9.93000  -18.44600
      O    O546    28.44500   12.09100  -19.68700
      O    O547    27.85200   10.00300  -20.92100
      C    C548    26.87300    9.03800  -21.24300
      C    C549    27.28900    8.30800  -22.49600
      O    O550    26.67500    8.95100  -23.63100
      C    C551    28.78700    8.30900  -22.76300
      O    O552    29.11300    6.96500  -23.07000
      C    C553    28.95600    9.28200  -23.93500
      C    C554    27.62100    9.14000  -24.65800
      N    N555    27.14000   10.32300  -25.42100
      C    C556    26.46500   10.12400  -26.60800
      O    O557    26.25800    9.01900  -27.08400
      N    N558    26.04200   11.27200  -27.23300
      C    C559    26.22400   12.57100  -26.78800
      O    O560    25.81200   13.54200  -27.41300
      C    C561    26.93100   12.70600  -25.53500
      C    C562    27.19300   14.06600  -24.96300
      C    C563    27.34700   11.59000  -24.91500
      P    P564    30.60200    6.37800  -23.16100
      O    O565    30.65400    5.18000  -22.28200
      O    O566    31.59200    7.47500  -23.01400
      O    O567    30.59700    5.90200  -24.69000
      C    C568    29.33500    5.54900  -25.24200
      C    C569    29.44400    4.98800  -26.64500
      O    O570    28.95300    5.93100  -27.63800
      C    C571    30.86000    4.65500  -27.07500
      O    O572    30.75000    3.58500  -28.01800
      C    C573    31.32900    5.98300  -27.67200
      C    C574    30.05000    6.52700  -28.31500
      N    N575    29.90600    7.98200  -28.22900
      C    C576    30.38100    8.80800  -27.24400
      N    N577    30.09400   10.07600  -27.43000
      C    C578    29.37700   10.08100  -28.61500
      C    C579    28.78200   11.11600  -29.35500
      N    N580    28.82400   12.39400  -28.98100
      N    N581    28.14400   10.78800  -30.49800
      C    C582    28.10400    9.50100  -30.87000
      N    N583    28.62100    8.43700  -30.25300
      C    C584    29.25200    8.80100  -29.12300
      P    P585    31.99200    3.03500  -28.86200
      O    O586    31.69400    1.61000  -29.12800
      O    O587    33.24300    3.43100  -28.17100
      O    O588    31.87900    3.84600  -30.24300
      C    C589    30.77300    3.56400  -31.10500
      C    C590    30.76200    4.46700  -32.32400
      O    O591    30.53200    5.84400  -31.91500
      C    C592    32.06500    4.45100  -33.12200
      O    O593    31.78700    4.21600  -34.51500
      C    C594    32.66600    5.82800  -32.83200
      C    C595    31.41300    6.67500  -32.64100
      N    N596    31.66100    7.93700  -31.94100
      C    C597    32.37100    8.13200  -30.77600
      N    N598    32.43000    9.38500  -30.40700
      C    C599    31.71400   10.06500  -31.39000
      C    C600    31.43100   11.44800  -31.53100
      O    O601    31.76800   12.37700  -30.78300
      N    N602    30.67600   11.71800  -32.67300
      C    C603    30.24600   10.76300  -33.56800
      N    N604    29.52900   11.20600  -34.61200
      N    N605    30.50300    9.46200  -33.44900
      C    C606    31.23800    9.18700  -32.34200
      P    P607    32.78200    4.65100  -35.70800
      O    O608    32.53400    3.71700  -36.83400
      O    O609    34.15400    4.84500  -35.17300
      O    O610    32.22900    6.09600  -36.11900
      C    C611    30.95200    6.23800  -36.73600
      C    C612    30.98800    7.43200  -37.66800
      O    O613    31.10800    8.64700  -36.88000
      C    C614    32.17500    7.39600  -38.62500
      O    O615    31.77800    7.80300  -39.94100
      C    C616    33.18100    8.34800  -37.97700
      C    C617    32.29400    9.33700  -37.22400
      N    N618    32.96300    9.88100  -35.99300
      C    C619    32.80500   11.21100  -35.66100
      O    O620    32.12900   11.99000  -36.31000
      N    N621    33.46800   11.59700  -34.52400
      C    C622    34.26100   10.81100  -33.70500
      O    O623    34.81300   11.25700  -32.70100
      C    C624    34.38800    9.43100  -34.11200
      C    C625    35.24500    8.48300  -33.32600
      C    C626    33.74300    9.04100  -35.22000
      P    P627    32.83700    8.44400  -40.96300
      O    O628    32.29000    8.33000  -42.33700
      O    O629    34.17800    7.89400  -40.64600
      O    O630    32.81900    9.98800  -40.53800
      C    C631    31.65700   10.78800  -40.77400
      C    C632    32.04900   12.22500  -41.06800
      O    O633    32.66800   12.81900  -39.89400
      C    C634    33.06300   12.38200  -42.19200
      O    O635    32.78400   13.59400  -42.89100
      C    C636    34.39900   12.40800  -41.44500
      C    C637    34.02800   13.12400  -40.14900
      N    N638    34.82500   12.71900  -38.99600
      C    C639    35.43400   11.50300  -38.78900
      N    N640    36.08100   11.43000  -37.65900
      C    C641    35.88700   12.67800  -37.07900
      C    C642    36.35100   13.18700  -35.84200
      O    O643    37.04900   12.61300  -34.99500
      N    N644    35.93100   14.50000  -35.62700
      C    C645    35.15700   15.22700  -36.50400
      N    N646    34.85700   16.47600  -36.12200
      N    N647    34.70900   14.76100  -37.66800
      C    C648    35.11400   13.48300  -37.88800
      P    P649    33.94000   14.40600  -43.65400
      O    O650    33.28600   15.17500  -44.73900
      O    O651    35.04900   13.47200  -43.97100
      O    O652    34.46300   15.43000  -42.53600
      C    C653    33.56500   16.38100  -41.95100
      C    C654    34.31500   17.62700  -41.51200
      O    O655    35.05200   17.34300  -40.29400
      C    C656    35.33300   18.13400  -42.53200
      O    O657    35.30000   19.56100  -42.59200
      C    C658    36.66900   17.59800  -42.01500
      C    C659    36.44200   17.49700  -40.50700
      N    N660    37.12600   16.36900  -39.88100
      C    C661    37.29100   15.10300  -40.39000
      N    N662    37.95500   14.31000  -39.59400
      C    C663    38.25200   15.09800  -38.48600
      C    C664    38.95400   14.78700  -37.29200
      O    O665    39.47700   13.71600  -36.95500
      N    N666    39.02400   15.88200  -36.43300
      C    C667    38.48400   17.12100  -36.69400
      N    N668    38.65500   18.05500  -35.74600
      N    N669    37.82500   17.42700  -37.80600
      C    C670    37.74600   16.37000  -38.65200
