# CIF file generated by openbabel 2.3.2, see http://openbabel.sf.net
data_I
_chemical_name_common '../proteins/pdb/2IT0.pdb'
_cell_length_a 54.009
_cell_length_b 70.363
_cell_length_c 79.569
_cell_angle_alpha 108.95
_cell_angle_beta 103.08
_cell_angle_gamma 94.84
_space_group_name_H-M_alt 'P 1'
_space_group_name_Hall 'P 1'
loop_
    _symmetry_equiv_pos_as_xyz
    'x,y,z'
loop_
    _atom_site_type_symbol
    _atom_site_label
    _atom_site_Cartn_x
    _atom_site_Cartn_y
    _atom_site_Cartn_z
      O    O1   -35.35100   -5.28400   27.15400
      C    C2   -34.68900   -6.30200   27.90500
      C    C3   -34.57700   -5.91200   29.37000
      O    O4   -34.77900   -7.09000   30.18800
      C    C5   -33.22100   -5.35000   29.77100
      O    O6   -33.29300   -3.93100   29.80500
      C    C7   -32.93000   -5.93300   31.15300
      C    C8   -33.78400   -7.19600   31.18500
      N    N9   -33.06200   -8.48900   30.96000
      C    C10   -32.17200   -8.96600   31.93400
      O    O11   -31.98300   -8.30100   32.96000
      N    N12   -31.53900  -10.15100   31.72600
      C    C13   -31.76400  -10.84700   30.60700
      N    N14   -31.10900  -12.00600   30.45600
      C    C15   -32.66900  -10.38200   29.60000
      C    C16   -33.28700   -9.21100   29.81700
      P    P17   -32.08500   -3.08000   29.17600
      O    O18   -32.44500   -1.64200   29.19900
      O    O19   -31.70600   -3.72500   27.89300
      O    O20   -30.90600   -3.32700   30.23200
      C    C21   -31.02700   -2.82000   31.56100
      C    C22   -29.81700   -3.26100   32.35100
      O    O23   -29.79000   -4.71400   32.39200
      C    C24   -28.50100   -2.82100   31.71400
      O    O25   -27.71300   -2.11000   32.66800
      C    C26   -27.84400   -4.13100   31.27800
      C    C27   -28.45500   -5.14200   32.24100
      N    N28   -28.45700   -6.52900   31.71700
      C    C29   -27.67100   -7.51400   32.33100
      O    O30   -26.98300   -7.21700   33.31900
      N    N31   -27.68700   -8.77700   31.83200
      C    C32   -28.44500   -9.06400   30.77200
      N    N33   -28.43100  -10.32000   30.31300
      C    C34   -29.25000   -8.07200   30.13300
      C    C35   -29.22600   -6.83000   30.63200
      P    P36   -26.44000   -1.24000   32.21200
      O    O37   -26.18700   -0.25500   33.29100
      O    O38   -26.68300   -0.79800   30.81900
      O    O39   -25.23200   -2.30200   32.22300
      C    C40   -25.18000   -3.26900   33.26800
      C    C41   -23.75100   -3.65400   33.58400
      O    O42   -23.54100   -5.07200   33.33300
      C    C43   -22.71200   -2.96100   32.72600
      O    O44   -21.49200   -3.09300   33.40100
      C    C45   -22.73400   -3.83100   31.47700
      C    C46   -22.91700   -5.23200   32.07100
      N    N47   -23.76600   -6.09800   31.20800
      C    C48   -23.55800   -7.48300   31.16000
      O    O49   -22.67100   -7.99200   31.85400
      N    N50   -24.34300   -8.23400   30.34600
      C    C51   -25.29300   -7.64600   29.61100
      N    N52   -26.04900   -8.41400   28.82100
      C    C53   -25.51200   -6.23900   29.64600
      C    C54   -24.73400   -5.50900   30.44900
      P    P55   -20.17000   -2.44000   32.79500
      O    O56   -19.29400   -2.10500   33.94500
      O    O57   -20.58600   -1.41900   31.80900
      O    O58   -19.48700   -3.66400   32.02300
      C    C59   -18.98400   -4.76900   32.76400
      C    C60   -18.44300   -5.81000   31.80100
      O    O61   -19.56300   -6.42600   31.11500
      C    C62   -17.51800   -5.24900   30.72400
      O    O63   -16.19900   -5.78200   30.90000
      C    C64   -18.17700   -5.63700   29.39300
      C    C65   -19.18400   -6.71900   29.79100
      N    N66   -20.42200   -6.82600   28.92500
      C    C67   -20.76400   -8.06700   28.43500
      O    O68   -20.10300   -9.05500   28.67500
      N    N69   -21.89200   -8.11200   27.65600
      C    C70   -22.71100   -7.04500   27.32500
      O    O71   -23.70600   -7.17200   26.61300
      C    C72   -22.30800   -5.76900   27.86700
      C    C73   -23.03300   -4.52100   27.44600
      C    C74   -21.20100   -5.72000   28.63400
      P    P75   -14.94100   -5.20100   30.09000
      O    O76   -13.72100   -5.42700   30.88000
      O    O77   -15.25400   -3.84100   29.61700
      O    O78   -14.91700   -6.14900   28.80600
      C    C79   -14.67500   -7.54300   28.98700
      C    C80   -15.35600   -8.42000   27.94600
      O    O81   -16.76600   -8.14600   27.77300
      C    C82   -14.82900   -8.30000   26.53300
      O    O83   -13.63300   -9.02700   26.49700
      C    C84   -15.92200   -9.02000   25.75100
      C    C85   -17.14600   -8.91800   26.65800
      N    N86   -18.25500   -8.25300   26.00600
      C    C87   -18.54300   -6.91600   26.02800
      N    N88   -19.61600   -6.61600   25.34900
      C    C89   -20.05900   -7.83100   24.84800
      C    C90   -21.16900   -8.11600   24.03400
      O    O91   -22.00900   -7.31200   23.59000
      N    N92   -21.25700   -9.47500   23.74800
      C    C93   -20.37500  -10.43000   24.19600
      N    N94   -20.62300  -11.69500   23.82500
      N    N95   -19.32000  -10.17500   24.96000
      C    C96   -19.23100   -8.85200   25.24200
      P    P97   -12.80900   -9.19000   25.14200
      O    O98   -11.46200   -9.63400   25.56600
      O    O99   -13.00000   -7.97300   24.32100
      O    O100   -13.56100  -10.38200   24.39000
      C    C101   -13.60900  -11.69500   24.91700
      C    C102   -14.36200  -12.57500   23.93900
      O    O103   -15.70200  -12.06400   23.69100
      C    C104   -13.68700  -12.64200   22.58100
      O    O105   -13.65400  -13.98900   22.16300
      C    C106   -14.57000  -11.79900   21.66500
      C    C107   -15.94100  -11.96400   22.30100
      N    N108   -16.82400  -10.79600   22.02500
      C    C109   -17.91300  -10.96600   21.21100
      O    O110   -18.20000  -12.02800   20.70700
      N    N111   -18.66700   -9.84600   20.99900
      C    C112   -18.44300   -8.58800   21.50800
      O    O113   -19.18600   -7.64400   21.25700
      C    C114   -17.28300   -8.47500   22.35200
      C    C115   -16.94000   -7.15400   22.97600
      C    C116   -16.53600   -9.56400   22.56600
      P    P117   -12.76300  -14.35100   20.89400
      O    O118   -12.34500  -15.76500   21.03400
      O    O119   -11.76200  -13.26600   20.72200
      O    O120   -13.83500  -14.28100   19.70600
      C    C121   -15.12800  -14.83600   19.89700
      C    C122   -15.73000  -15.22800   18.56100
      O    O123   -16.69500  -14.21700   18.18000
      C    C124   -14.77300  -15.31500   17.37200
      O    O125   -15.37900  -16.18300   16.35800
      C    C126   -14.67900  -13.83000   16.99200
      C    C127   -16.14200  -13.41500   17.15200
      N    N128   -16.42100  -11.99000   17.50900
      C    C129   -17.65100  -11.50100   17.14100
      O    O130   -18.47300  -12.18300   16.55100
      N    N131   -17.88100  -10.19500   17.48400
      C    C132   -17.02400   -9.34900   18.15500
      O    O133   -17.34200   -8.19200   18.41000
      C    C134   -15.74900   -9.92200   18.52000
      C    C135   -14.78000   -9.13800   19.35900
      C    C136   -15.51100  -11.20100   18.18400
      P    P137   -14.77200  -16.54200   14.89700
      O    O138   -15.08600  -17.96400   14.62000
      O    O139   -13.38800  -16.01800   14.78700
      O    O140   -15.71400  -15.70500   13.91100
      C    C141   -17.11900  -15.90500   13.86400
      C    C142   -17.64000  -14.95800   12.80700
      O    O143   -17.75800  -13.61600   13.35400
      C    C144   -16.71000  -14.81400   11.60800
      O    O145   -17.52400  -14.88400   10.44100
      C    C146   -16.04600  -13.44900   11.80200
      C    C147   -17.16900  -12.67500   12.47800
      N    N148   -16.80200  -11.49900   13.27600
      C    C149   -15.70200  -11.31500   14.06700
      N    N150   -15.66100  -10.14400   14.66600
      C    C151   -16.81800   -9.50900   14.24400
      C    C152   -17.37800   -8.23700   14.51800
      N    N153   -16.81600   -7.33100   15.32500
      N    N154   -18.54600   -7.91400   13.92800
      C    C155   -19.12100   -8.81500   13.12600
      N    N156   -18.69500  -10.03900   12.79100
      C    C157   -17.52700  -10.33200   13.38800
      P    P158   -16.91700  -14.64700    8.98500
      O    O159   -17.71400  -15.48100    8.05400
      O    O160   -15.44500  -14.77900    9.07100
      O    O161   -17.27100  -13.11100    8.72400
      C    C162   -18.59400  -12.73600    8.35000
      C    C163   -18.63900  -11.25200    8.05200
      O    O164   -18.28000  -10.53300    9.26100
      C    C165   -17.64700  -10.78300    6.98700
      O    O166   -18.23800   -9.93500    6.01600
      C    C167   -16.64000   -9.97200    7.78200
      C    C168   -17.56300   -9.40500    8.84600
      N    N169   -16.79000   -8.81300    9.92200
      C    C170   -15.62900   -9.32600   10.45900
      N    N171   -15.11000   -8.57500   11.39100
      C    C172   -15.97600   -7.48800   11.46600
      C    C173   -15.91600   -6.34800   12.29900
      O    O174   -15.06900   -6.07100   13.16400
      N    N175   -16.98300   -5.48900   12.05000
      C    C176   -17.97500   -5.70000   11.11600
      N    N177   -18.90700   -4.74400   11.03300
      N    N178   -18.03900   -6.76500   10.31900
      C    C179   -17.00900   -7.61200   10.55200
      P    P180   -17.67000   -9.95600    4.52400
      O    O181   -18.64600  -10.71000    3.70400
      O    O182   -16.24900  -10.34900    4.55500
      O    O183   -17.71700   -8.43900    4.04900
      C    C184   -16.85400   -7.51900    4.64700
      C    C185   -17.65000   -6.36400    5.21100
      O    O186   -17.63300   -6.43700    6.66000
      C    C187   -17.04700   -5.01700    4.84600
      O    O188   -17.63000   -4.59000    3.64300
      C    C189   -17.43500   -4.14400    6.03400
      C    C190   -17.42700   -5.13700    7.19700
      N    N191   -16.17200   -5.12700    8.03000
      C    C192   -16.01700   -4.13100    8.99100
      O    O193   -16.91300   -3.30700    9.11600
      N    N194   -14.90800   -4.09900    9.76300
      C    C195   -13.96000   -5.02700    9.59300
      N    N196   -12.87900   -4.95300   10.37400
      C    C197   -14.08500   -6.05900    8.60900
      C    C198   -15.19700   -6.07500    7.86000
      P    P199   -16.96500   -3.41000    2.79900
      O    O200   -17.79400   -3.19000    1.58700
      O    O201   -15.52400   -3.74000    2.70500
      O    O202   -17.06800   -2.11600    3.73300
      C    C203   -18.29000   -1.49300    4.04700
      C    C204   -17.92900   -0.19200    4.73800
      O    O205   -17.35100   -0.45300    6.04200
      C    C206   -16.87000    0.59000    3.97300
      O    O207   -17.50400    1.53400    3.12800
      C    C208   -16.06200    1.29000    5.05900
      C    C209   -16.25400    0.40700    6.27700
      N    N210   -15.14500   -0.46100    6.65400
      C    C211   -14.92600   -1.74800    6.22300
      N    N212   -13.87600   -2.31600    6.76300
      C    C213   -13.36600   -1.34100    7.61200
      C    C214   -12.24800   -1.31700    8.47700
      N    N215   -11.41600   -2.35100    8.62600
      N    N216   -12.02100   -0.19100    9.18400
      C    C217   -12.85800    0.83900    9.03000
      N    N218   -13.93800    0.94200    8.25200
      C    C219   -14.14100   -0.19200    7.56200
      P    P220   -16.68500    2.18800    1.92300
      O    O221   -17.61200    3.10800    1.22600
      O    O222   -16.01300    1.10400    1.16800
      O    O223   -15.59100    3.11100    2.65600
      C    C224   -16.02500    4.08600    3.61200
      C    C225   -14.84000    4.78000    4.25400
      O    O226   -14.14400    3.82600    5.09600
      C    C227   -13.81500    5.30700    3.25600
      O    O228   -13.57100    6.67200    3.55800
      C    C229   -12.58500    4.40300    3.43700
      C    C230   -12.75200    3.87300    4.86200
      N    N231   -12.17500    2.49800    5.08800
      C    C232   -11.19700    2.30800    6.07400
      O    O233   -10.84500    3.27400    6.73600
      N    N234   -10.66100    1.08100    6.27900
      C    C235   -11.07300    0.05800    5.52600
      N    N236   -10.53300   -1.14700    5.75000
      C    C237   -12.07000    0.22800    4.51400
      C    C238   -12.58600    1.44400    4.32800
      P    P239   -12.51500    7.52600    2.70100
      O    O240   -13.01200    8.92600    2.71100
      O    O241   -12.26200    6.82400    1.43700
      O    O242   -11.18800    7.49600    3.59800
      C    C243   -11.34600    7.85800    4.96400
      C    C244   -10.01600    8.09000    5.64400
      O    O245    -9.38000    6.83000    5.98300
      C    C246    -8.98400    8.83800    4.82600
      O    O247    -8.15900    9.50800    5.75600
      C    C248    -8.26200    7.68600    4.13200
      C    C249    -8.18600    6.65300    5.25600
      N    N250    -8.18800    5.25200    4.84900
      C    C251    -8.91700    4.65200    3.85700
      N    N252    -8.72000    3.35700    3.75000
      C    C253    -7.81100    3.08800    4.74500
      C    C254    -7.18700    1.90200    5.15800
      N    N255    -7.40400    0.71400    4.58800
      N    N256    -6.32900    1.98200    6.19200
      C    C257    -6.10000    3.16500    6.76400
      N    N258    -6.62100    4.35400    6.46800
      C    C259    -7.47400    4.24000    5.43500
      P    P260    -6.95500   10.44200    5.27800
      O    O261    -6.54100   11.29700    6.41200
      O    O262    -7.31400   11.04000    3.97100
      O    O263    -5.79300    9.37100    5.14200
      C    C264    -5.24900    8.82400    6.32000
      C    C265    -4.00500    8.04700    5.95400
      O    O266    -4.38300    6.74700    5.43600
      C    C267    -3.19500    8.68900    4.83100
      O    O268    -1.83600    8.35500    5.04100
      C    C269    -3.75700    7.97200    3.60300
      C    C270    -3.72700    6.57400    4.19700
      N    N271    -4.40500    5.54100    3.42700
      C    C272    -5.39700    5.72000    2.48600
      N    N273    -5.82300    4.60400    1.96400
      C    C274    -5.06100    3.62100    2.59400
      C    C275    -5.07900    2.21800    2.43500
      O    O276    -5.78700    1.55000    1.67900
      N    N277    -4.16500    1.58300    3.26600
      C    C278    -3.32100    2.22800    4.14200
      N    N279    -2.50100    1.44800    4.85300
      N    N280    -3.29900    3.54800    4.31100
      C    C281    -4.18700    4.18000    3.50300
      P    P282    -0.71800    9.47500    5.22000
      O    O283    -0.70000    9.84400    6.64200
      O    O284    -0.93900   10.51100    4.18900
      O    O285     0.63800    8.66500    4.90000
      C    C286     0.82900    7.96700    3.68000
      C    C287     1.26200    6.53000    3.92400
      O    O288     0.10900    5.65500    4.09300
      C    C289     2.03700    5.89500    2.76700
      O    O290     3.37600    6.27200    2.83600
      C    C291     1.86400    4.41200    3.04600
      C    C292     0.44200    4.36600    3.60100
      N    N293    -0.50100    4.01100    2.55800
      C    C294    -1.40900    4.83600    1.94200
      N    N295    -2.12100    4.22300    1.03700
      C    C296    -1.64700    2.92400    1.05100
      C    C297    -2.03300    1.81200    0.29400
      O    O298    -2.89700    1.76400   -0.57400
      N    N299    -1.31600    0.66600    0.61600
      C    C300    -0.32800    0.60400    1.56200
      N    N301     0.27100   -0.58200    1.73200
      N    N302     0.04900    1.64700    2.28100
      C    C303    -0.65000    2.77000    1.97500
      P    P304     4.27100    6.33200    1.51600
      O    O305     5.61500    6.85000    1.88800
      O    O306     3.51900    6.96900    0.42200
      O    O307     4.42000    4.77900    1.16100
      C    C308     5.17700    3.91800    1.99000
      C    C309     5.03600    2.53300    1.41500
      O    O310     3.63600    2.20000    1.26700
      C    C311     5.54400    2.42900   -0.01000
      O    O312     6.95100    2.28500    0.00900
      C    C313     4.81900    1.18200   -0.51500
      C    C314     3.49400    1.25400    0.22800
      N    N315     2.35600    1.69300   -0.59300
      C    C316     1.76300    0.77200   -1.44700
      O    O317     2.24300   -0.37500   -1.47700
      N    N318     0.70200    1.16600   -2.20400
      C    C319     0.23600    2.42000   -2.10900
      N    N320    -0.82400    2.76500   -2.86200
      C    C321     0.83800    3.37900   -1.24000
      C    C322     1.87800    2.96700   -0.50700
      P    P323     7.77800    2.30400   -1.35100
      O    O324     9.20100    2.21500   -0.95900
      O    O325     7.29700    3.41200   -2.20700
      O    O326     7.34500    0.92800   -2.04900
      C    C327     7.71800   -0.32100   -1.47600
      C    C328     7.45200   -1.42900   -2.47700
      O    O329     6.05000   -1.43500   -2.87100
      C    C330     8.26100   -1.32800   -3.76100
      O    O331     8.67800   -2.62400   -4.09100
      C    C332     7.25600   -0.80800   -4.77600
      C    C333     5.93200   -1.36600   -4.27400
      N    N334     4.81600   -0.43900   -4.56400
      C    C335     3.79700   -0.76200   -5.44400
      O    O336     3.69600   -1.81600   -6.04200
      N    N337     2.85700    0.22000   -5.60600
      C    C338     2.83100    1.45400   -4.98500
      O    O339     1.93800    2.26000   -5.19500
      C    C340     3.92500    1.73200   -4.08900
      C    C341     4.23600    3.14500   -3.71600
      C    C342     4.84500    0.78000   -3.92500
      P    P343     9.57900   -2.91100   -5.38100
      O    O344    10.33100   -4.14600   -5.09400
      O    O345    10.26400   -1.65900   -5.81600
      O    O346     8.51500   -3.37700   -6.46700
      C    C347     7.91800   -4.64700   -6.33000
      C    C348     7.05300   -4.89500   -7.54400
      O    O349     6.00400   -3.89300   -7.59000
      C    C350     7.77500   -4.80000   -8.88000
      O    O351     7.24100   -5.79000   -9.72700
      C    C352     7.40400   -3.41200   -9.38200
      C    C353     5.97700   -3.28800   -8.86100
      N    N354     5.48900   -1.91700   -8.70000
      C    C355     6.10900   -0.88800   -8.03400
      N    N356     5.43500    0.22800   -8.05700
      C    C357     4.29000   -0.06600   -8.78200
      C    C358     3.17700    0.75600   -9.14000
      O    O359     2.96300    1.95200   -8.89100
      N    N360     2.22600    0.04800   -9.87700
      C    C361     2.35000   -1.27600  -10.24200
      N    N362     1.33800   -1.77600  -10.96700
      N    N363     3.38900   -2.05100   -9.91200
      C    C364     4.31400   -1.38700   -9.18500
      P    P365     8.08300   -6.31900  -10.96600
      O    O366     7.71900   -7.73600  -11.18000
      O    O367     9.49000   -5.90000  -10.78600
      O    O368     7.47900   -5.50500  -12.18900
      C    C369     6.09900   -5.66400  -12.46600
      C    C370     5.64000   -4.55900  -13.40100
      O    O371     5.40100   -3.31700  -12.68800
      C    C372     6.63000   -4.21600  -14.51300
      O    O373     5.82600   -4.12300  -15.62700
      C    C374     7.12100   -2.82200  -14.14900
      C    C375     5.82500   -2.29100  -13.55200
      N    N376     5.91200   -1.01000  -12.79000
      C    C377     4.76700   -0.20600  -12.70600
      O    O378     3.72800   -0.57700  -13.25200
      N    N379     4.83300    0.96700  -12.02800
      C    C380     5.98700    1.32900  -11.44700
      N    N381     6.00100    2.48000  -10.78100
      C    C382     7.16600    0.52300  -11.51500
      C    C383     7.08100   -0.62800  -12.19200
      P    P384     6.02300   -4.95100  -16.97100
      O    O385     4.82200   -5.79900  -17.11700
      O    O386     7.36900   -5.56100  -17.04000
      O    O387     6.05300   -3.69800  -17.98100
      C    C388     4.97800   -3.40400  -18.83800
      C    C389     4.48200   -1.95700  -18.76200
      O    O390     4.43100   -1.43000  -17.41400
      C    C391     5.23700   -0.84800  -19.48600
      O    O392     5.10700   -0.98300  -20.88200
      C    C393     4.35300    0.30000  -19.02900
      C    C394     4.06900   -0.06300  -17.57400
      N    N395     4.82400    0.80800  -16.62800
      C    C396     4.38100    2.11200  -16.38000
      O    O397     3.35300    2.50900  -16.94900
      N    N398     5.08500    2.90400  -15.52300
      C    C399     6.18300    2.41500  -14.93700
      N    N400     6.85800    3.18700  -14.08500
      C    C401     6.64800    1.09500  -15.19000
      C    C402     5.94400    0.33700  -16.03000
      P    P403     5.89400   -0.02000  -21.89500
      O    O404     5.74100   -0.65200  -23.22800
      O    O405     7.24200    0.27200  -21.36500
      O    O406     5.09000    1.37400  -21.83800
      C    C407     3.70200    1.48200  -22.15600
      C    C408     3.26500    2.93800  -22.10800
      O    O409     3.21900    3.41700  -20.73900
      C    C410     4.20300    3.92300  -22.77800
      O    O411     3.86100    3.98700  -24.12500
      C    C412     3.84600    5.23700  -22.09500
      C    C413     3.58000    4.78900  -20.67500
      N    N414     4.70500    4.91900  -19.68700
      C    C415     4.96000    6.16300  -19.06400
      O    O416     4.26900    7.14400  -19.36600
      N    N417     5.95800    6.26700  -18.14600
      C    C418     6.67400    5.17800  -17.84700
      N    N419     7.64000    5.31500  -16.94400
      C    C420     6.44200    3.90200  -18.46100
      C    C421     5.45100    3.81500  -19.36400
      P    P422     4.79100    4.71000  -25.20000
      O    O423     4.19800    4.26200  -26.48300
      O    O424     6.21300    4.46400  -24.87700
      O    O425     4.54300    6.28800  -25.02600
      C    C426     3.23100    6.86100  -25.12400
      C    C427     3.23800    8.35200  -24.80400
      O    O428     3.71100    8.63500  -23.45200
      C    C429     4.10900    9.18100  -25.73300
      O    O430     3.38700   10.35600  -26.06500
      C    C431     5.35100    9.50900  -24.90800
      C    C432     4.84900    9.48100  -23.47200
      N    N433     5.85800    8.92700  -22.52800
      C    C434     6.35500    9.72000  -21.50900
      O    O435     6.01100   10.86900  -21.32900
      N    N436     7.28000    9.12700  -20.68400
      C    C437     7.74800    7.83200  -20.77800
      O    O438     8.56900    7.40000  -19.98300
      C    C439     7.19800    7.04300  -21.86300
      C    C440     7.74300    5.68000  -22.16300
      C    C441     6.29100    7.62200  -22.67600
      P    P442     3.91800   11.37100  -27.18900
      O    O443     2.78100   12.27300  -27.50400
      O    O444     4.59500   10.57200  -28.24700
      O    O445     4.99800   12.25200  -26.41600
      C    C446     4.57100   12.98400  -25.27500
      C    C447     5.59600   14.06200  -25.03300
      O    O448     6.42000   13.65100  -23.91800
      C    C449     6.49900   14.21500  -26.25000
      O    O450     6.30100   15.52900  -26.81700
      C    C451     7.92300   13.91900  -25.77000
      C    C452     7.79800   13.65200  -24.26500
      N    N453     8.42400   12.39700  -23.81100
      C    C454     8.36000   11.16000  -24.40100
      N    N455     9.03000   10.23600  -23.74600
      C    C456     9.57600   10.90900  -22.65900
      C    C457    10.40100   10.50500  -21.58100
      N    N458    10.84800    9.25800  -21.40100
      N    N459    10.76200   11.43200  -20.67500
      C    C460    10.32200   12.68000  -20.83900
      N    N461     9.54700   13.17800  -21.80000
      C    C462     9.20800   12.23700  -22.68900
      P    P463     7.24500   16.80300  -26.52300
      O    O464     6.35300   17.98700  -26.58200
      O    O465     8.43800   16.66900  -27.40700
      O    O466     7.69600   16.67900  -24.98000
      C    C467     8.28200   17.78900  -24.29800
      C    C468     9.73300   17.53600  -23.91200
      O    O469    10.02500   16.12600  -23.72000
      C    C470    10.75800   18.03100  -24.93100
      O    O471    11.32300   19.22600  -24.39200
      C    C472    11.78000   16.89300  -25.06600
      C    C473    11.41400   15.94500  -23.92400
      N    N474    11.67900   14.53100  -24.19400
      C    C475    11.29500   13.79600  -25.28100
      N    N476    11.68700   12.54300  -25.23800
      C    C477    12.37900   12.44500  -24.04200
      C    C478    13.04700   11.37800  -23.40400
      N    N479    13.13600   10.14100  -23.90300
      N    N480    13.63500   11.63300  -22.21800
      C    C481    13.56600   12.86700  -21.70500
      N    N482    12.96700   13.94600  -22.20600
      C    C483    12.38800   13.66300  -23.38900
      P    P484    12.65000   19.91000  -24.96800
      O    O485    12.64100   21.29700  -24.45500
      O    O486    12.76300   19.65400  -26.42700
      O    O487    13.81200   19.10100  -24.21900
      C    C488    13.76800   18.93700  -22.79900
      C    C489    14.91500   18.06000  -22.33300
      O    O490    14.73500   16.70300  -22.81200
      C    C491    16.28700   18.48400  -22.84500
      O    O492    17.19400   18.47500  -21.75500
      C    C493    16.66200   17.41200  -23.86400
      C    C494    15.98800   16.20300  -23.23800
      N    N495    15.76800   15.04800  -24.16500
      C    C496    16.26000   13.81000  -23.80600
      O    O497    16.87500   13.59700  -22.77500
      N    N498    16.00700   12.81800  -24.71300
      C    C499    15.32500   12.93700  -25.91300
      O    O500    15.14300   11.97300  -26.65900
      C    C501    14.83200   14.26000  -26.22000
      C    C502    13.80200   14.42500  -27.30000
      C    C503    15.08100   15.24000  -25.34600
      P    P504    18.51200   19.38000  -21.80500
      O    O505    18.41100   20.32600  -20.66400
      O    O506    18.67800   19.86100  -23.20600
      O    O507    19.67800   18.31100  -21.51700
      C    C508    19.53200   17.36100  -20.46700
      C    C509    20.29900   16.09500  -20.79000
      O    O510    19.66900   15.34300  -21.86000
      C    C511    21.73000   16.31400  -21.24700
      O    O512    22.52100   15.50300  -20.41700
      C    C513    21.75700   15.79900  -22.68600
      C    C514    20.68300   14.72400  -22.62000
      N    N515    20.09000   14.34200  -23.92800
      C    C516    20.20500   13.04100  -24.38600
      O    O517    20.79100   12.14600  -23.78600
      N    N518    19.60700   12.82100  -25.60600
      C    C519    18.92400   13.74100  -26.38700
      O    O520    18.42600   13.43800  -27.46900
      C    C521    18.84200   15.07800  -25.84800
      C    C522    18.35000   16.20100  -26.71600
      C    C523    19.41600   15.30600  -24.65800
      P    P524    23.89900   16.05700  -19.84300
      O    O525    23.62600   16.81100  -18.59300
      O    O526    24.58100   16.71200  -20.99200
      O    O527    24.67600   14.70700  -19.46400
      C    C528    23.97400   13.46700  -19.40400
      C    C529    24.32100   12.57500  -20.58200
      O    O530    23.79700   13.08900  -21.82700
      C    C531    25.80700   12.39300  -20.89000
      O    O532    26.25400   11.25800  -20.15800
      C    C533    25.87000   12.16500  -22.41100
      C    C534    24.38000   12.18600  -22.74800
      N    N535    23.89300   12.41200  -24.15400
      C    C536    23.75000   11.29300  -24.94800
      O    O537    24.03700   10.17700  -24.55800
      N    N538    23.27300   11.52300  -26.21500
      C    C539    22.91300   12.74600  -26.74800
      O    O540    22.48400   12.84900  -27.89600
      C    C541    23.07700   13.88000  -25.86000
      C    C542    22.73100   15.25700  -26.33600
      C    C543    23.54800   13.66800  -24.61800
      P    P544    27.81300   10.96700  -19.94400
      O    O545    27.97800   10.30400  -18.63000
      O    O546    28.52200   12.23800  -20.21900
      O    O547    28.14700    9.93000  -21.11700
      C    C548    27.45800    8.70500  -21.16800
      C    C549    27.66400    8.06700  -22.52400
      O    O550    26.98300    8.82600  -23.55600
      C    C551    29.11800    7.99200  -22.97600
      O    O552    29.39000    6.65400  -23.36600
      C    C553    29.17100    8.95300  -24.16700
      C    C554    27.77100    8.74400  -24.72200
      N    N555    27.31800    9.78800  -25.66900
      C    C556    26.81300    9.42700  -26.90200
      O    O557    26.71800    8.27400  -27.28500
      N    N558    26.42400   10.49200  -27.68100
      C    C559    26.48800   11.83700  -27.35400
      O    O560    26.11200   12.71200  -28.12600
      C    C561    27.03000   12.13900  -26.05200
      C    C562    27.31500   13.55300  -25.64700
      C    C563    27.41000   11.11200  -25.28500
      P    P564    30.82400    6.27700  -23.95300
      O    O565    31.05000    4.83100  -23.71500
      O    O566    31.76500    7.27600  -23.38600
      O    O567    30.66700    6.50700  -25.54000
      C    C568    29.55800    5.93900  -26.24900
      C    C569    29.93600    5.34300  -27.60300
      O    O570    29.44500    6.19100  -28.67500
      C    C571    31.42500    5.14400  -27.88800
      O    O572    31.63800    3.87200  -28.53400
      C    C573    31.82100    6.33700  -28.76400
      C    C574    30.50500    6.94000  -29.24800
      N    N575    30.34000    8.34700  -28.86900
      C    C576    30.86500    8.98600  -27.77200
      N    N577    30.54400   10.25700  -27.69000
      C    C578    29.75300   10.46500  -28.80800
      C    C579    29.09300   11.60600  -29.29700
      N    N580    29.14200   12.78800  -28.68200
      N    N581    28.38400   11.47900  -30.43900
      C    C582    28.34200   10.28700  -31.05200
      N    N583    28.91500    9.14000  -30.69100
      C    C584    29.61400    9.30100  -29.55000
      P    P585    32.49100    3.67200  -29.88500
      O    O586    32.80300    2.23100  -30.01800
      O    O587    33.58800    4.67300  -29.92700
      O    O588    31.42300    4.04600  -31.01800
      C    C589    31.66600    3.66700  -32.36500
      C    C590    31.43400    4.83800  -33.30400
      O    O591    31.17500    6.08300  -32.58200
      C    C592    32.60200    5.15700  -34.23200
      O    O593    32.04800    5.63400  -35.44400
      C    C594    33.25200    6.32000  -33.49900
      C    C595    31.94600    7.06600  -33.25000
      N    N596    32.05700    8.35300  -32.55100
      C    C597    32.75300    8.65000  -31.40100
      N    N598    32.66000    9.90600  -31.04300
      C    C599    31.85800   10.48100  -32.02400
      C    C600    31.40900   11.81500  -32.17300
      O    O601    31.64100   12.78800  -31.44100
      N    N602    30.61200   11.97000  -33.30700
      C    C603    30.28900   10.96400  -34.18700
      N    N604    29.50900   11.30400  -35.22400
      N    N605    30.70300    9.70900  -34.05900
      C    C606    31.48100    9.54000  -32.95900
      P    P607    32.46500    5.06200  -36.87900
      O    O608    32.64200    3.59100  -36.75900
      O    O609    33.57600    5.90800  -37.38800
      O    O610    31.12400    5.35500  -37.72100
      C    C611    31.15500    5.61900  -39.12100
      C    C612    31.32300    7.10200  -39.40700
      O    O613    31.54000    7.84500  -38.17700
      C    C614    32.52000    7.43400  -40.30100
      O    O615    32.08700    7.54400  -41.69100
      C    C616    33.12700    8.70200  -39.67300
      C    C617    32.16100    9.06200  -38.53700
      N    N618    32.78300    9.75500  -37.33400
      C    C619    32.36700   11.03800  -37.03500
      O    O620    31.52600   11.64200  -37.68100
      N    N621    32.97600   11.60100  -35.94100
      C    C622    33.93700   11.02900  -35.12900
      O    O623    34.41900   11.62300  -34.17000
      C    C624    34.32800    9.68900  -35.49000
      C    C625    35.26200    8.93200  -34.59300
      C    C626    33.74500    9.12500  -36.56200
      P    P627    32.25500    8.85500  -42.60600
      O    O628    31.71700    8.56100  -43.95400
      O    O629    33.65300    9.31700  -42.45200
      O    O630    31.27900    9.93300  -41.93700
      C    C631    31.01400   11.15700  -42.62700
      C    C632    32.08400   12.21800  -42.37900
      O    O633    32.70300   12.06800  -41.07300
      C    C634    33.26100   12.23700  -43.36200
      O    O635    33.03400   13.23400  -44.39100
      C    C636    34.49900   12.48400  -42.48200
      C    C637    33.87500   12.85800  -41.13500
      N    N638    34.72700   12.67900  -39.94900
      C    C639    35.47000   11.57200  -39.59700
      N    N640    36.13300   11.71900  -38.47900
      C    C641    35.81500   13.00700  -38.06000
      C    C642    36.23700   13.72300  -36.91100
      O    O643    37.00100   13.34900  -36.00700
      N    N644    35.67800   15.00100  -36.86700
      C    C645    34.82300   15.51800  -37.80900
      N    N646    34.39300   16.76500  -37.58900
      N    N647    34.41500   14.86100  -38.88600
      C    C648    34.95000   13.61300  -38.95000
      P    P649    33.55500   14.76100  -44.34100
      O    O650    32.92300   15.48700  -45.47300
      O    O651    35.03700   14.72100  -44.25900
      O    O652    32.95900   15.35700  -42.96500
      C    C653    32.31800   16.64800  -42.91000
      C    C654    33.29600   17.78100  -42.60400
      O    O655    34.16500   17.40800  -41.49700
      C    C656    34.19200   18.19100  -43.77800
      O    O657    34.15100   19.60300  -43.99400
      C    C658    35.59000   17.72000  -43.37900
      C    C659    35.52800   17.57200  -41.85700
      N    N660    36.32000   16.44000  -41.35300
      C    C661    36.44500   15.20100  -41.94100
      N    N662    37.21400   14.37200  -41.28900
      C    C663    37.63600   15.11100  -40.19200
      C    C664    38.49000   14.72900  -39.13100
      O    O665    39.04500   13.63000  -38.96800
      N    N666    38.66600   15.77000  -38.21400
      C    C667    38.08600   17.01700  -38.31800
      N    N668    38.36900   17.89300  -37.34500
      N    N669    37.28200   17.38700  -39.31000
      C    C670    37.10000   16.38500  -40.21200
