# CIF file generated by openbabel 2.3.2, see http://openbabel.sf.net
data_I
_chemical_name_common '../proteins/pdb/2O8X.pdb'
_cell_length_a 161.33
_cell_length_b 161.33
_cell_length_c 161.33
_cell_angle_alpha 90
_cell_angle_beta 90
_cell_angle_gamma 90
_space_group_name_H-M_alt 'F 2 3'
_space_group_name_Hall 'F 2 2 3'
loop_
    _symmetry_equiv_pos_as_xyz
    'x,y,z'
    '-x,-y,z'
    '-x,y,-z'
    'x,-y,-z'
    'z,x,y'
    'z,-x,-y'
    '-z,-x,y'
    '-z,x,-y'
    'y,z,x'
    '-y,z,-x'
    'y,-z,-x'
    '-y,-z,x'
    'x,1/2+y,1/2+z'
    '-x,1/2-y,1/2+z'
    '-x,1/2+y,1/2-z'
    'x,1/2-y,1/2-z'
    'z,1/2+x,1/2+y'
    'z,1/2-x,1/2-y'
    '-z,1/2-x,1/2+y'
    '-z,1/2+x,1/2-y'
    'y,1/2+z,1/2+x'
    '-y,1/2+z,1/2-x'
    'y,1/2-z,1/2-x'
    '-y,1/2-z,1/2+x'
    '1/2+x,y,1/2+z'
    '1/2-x,-y,1/2+z'
    '1/2-x,y,1/2-z'
    '1/2+x,-y,1/2-z'
    '1/2+z,x,1/2+y'
    '1/2+z,-x,1/2-y'
    '1/2-z,-x,1/2+y'
    '1/2-z,x,1/2-y'
    '1/2+y,z,1/2+x'
    '1/2-y,z,1/2-x'
    '1/2+y,-z,1/2-x'
    '1/2-y,-z,1/2+x'
    '1/2+x,1/2+y,z'
    '1/2-x,1/2-y,z'
    '1/2-x,1/2+y,-z'
    '1/2+x,1/2-y,-z'
    '1/2+z,1/2+x,y'
    '1/2+z,1/2-x,-y'
    '1/2-z,1/2-x,y'
    '1/2-z,1/2+x,-y'
    '1/2+y,1/2+z,x'
    '1/2-y,1/2+z,-x'
    '1/2+y,1/2-z,-x'
    '1/2-y,1/2-z,x'
loop_
    _atom_site_type_symbol
    _atom_site_label
    _atom_site_Cartn_x
    _atom_site_Cartn_y
    _atom_site_Cartn_z
      N    N1    47.72000  -12.43200  -45.61000
      C    C2    49.16100  -12.83400  -45.46600
      C    C3    49.80200  -12.51300  -44.06500
      O    O4    49.82600  -13.36900  -43.15000
      C    C5    49.99800  -12.27400  -46.65400
      C    C6    50.26600  -10.72400  -46.69100
      S    S7    52.04400  -10.34300  -47.04400
      C    C8    52.12100   -8.53400  -47.07300
      N    N9    50.32100  -11.28200  -43.93800
      C    C10    50.78400  -10.68000  -42.67600
      C    C11    49.73200   -9.74800  -42.08000
      O    O12    49.83000   -9.32100  -40.93100
      N    N13    48.72500   -9.41500  -42.88100
      C    C14    47.52200   -8.74900  -42.38800
      C    C15    46.59000   -9.70900  -41.69000
      O    O16    45.73800   -9.30400  -40.89700
      C    C17    46.73300   -8.15500  -43.53700
      C    C18    47.39200   -6.99500  -44.17200
      C    C19    47.11900   -5.70500  -43.72600
      C    C20    48.28900   -7.18600  -45.23300
      C    C21    47.73800   -4.61300  -44.33100
      C    C22    48.91300   -6.11300  -45.84000
      C    C23    48.63700   -4.82300  -45.39300
      N    N24    46.70100  -10.98300  -42.01600
      C    C25    45.81400  -11.94000  -41.39400
      C    C26    45.96700  -11.91400  -39.87600
      O    O27    45.00600  -12.22500  -39.13800
      C    C28    46.07400  -13.34400  -41.90700
      C    C29    45.83300  -13.49400  -43.37800
      C    C30    45.05400  -14.74300  -43.68700
      O    O31    44.35200  -14.75000  -44.72400
      O    O32    45.11900  -15.70700  -42.89000
      N    N33    47.17500  -11.56400  -39.42000
      C    C34    47.46800  -11.49900  -37.99000
      C    C35    47.00400  -10.19400  -37.42000
      O    O36    46.27200  -10.19100  -36.43400
      C    C37    48.96000  -11.59900  -37.71700
      C    C38    49.59600  -12.79100  -38.38600
      O    O39    49.08400  -13.23900  -39.45000
      O    O40    50.62200  -13.27800  -37.84700
      N    N41    47.45200   -9.08700  -38.02400
      C    C42    47.17100   -7.75300  -37.48700
      C    C43    45.69800   -7.56700  -37.18100
      O    O44    45.33500   -6.80000  -36.29400
      C    C45    47.64900   -6.65100  -38.42900
      C    C46    49.14400   -6.59300  -38.72200
      C    C47    49.46300   -5.35200  -39.52800
      C    C48    49.95800   -6.60800  -37.43600
      N    N49    44.86500   -8.28400  -37.92800
      C    C50    43.42900   -8.23600  -37.75000
      C    C51    43.01700   -9.23700  -36.67800
      O    O52    42.16900   -8.93600  -35.85300
      C    C53    42.67000   -8.46600  -39.09100
      C    C54    43.16500   -7.49900  -40.17400
      C    C55    42.81000   -9.89900  -39.57600
      N    N56    43.64300  -10.41400  -36.70000
      C    C57    43.40400  -11.45800  -35.72600
      C    C58    43.76900  -10.85700  -34.38400
      O    O59    43.08700  -11.09400  -33.38300
      C    C60    44.26900  -12.67700  -36.05100
      C    C61    43.58100  -14.04500  -35.88000
      C    C62    44.07800  -14.83300  -34.64300
      O    O63    43.26700  -15.04500  -33.70100
      O    O64    45.27500  -15.24300  -34.61400
      N    N65    44.80500  -10.05100  -34.38600
      C    C66    45.33000   -9.48000  -33.16700
      C    C67    44.47700   -8.34500  -32.73400
      O    O68    44.04800   -8.24700  -31.60600
      C    C69    46.62100   -8.80200  -33.43700
      C    C70    46.65100   -7.55300  -32.67300
      C    C71    47.76800   -9.67700  -33.08200
      N    N72    44.28300   -7.44600  -33.66500
      C    C73    43.70500   -6.18800  -33.36700
      C    C74    42.26600   -6.44100  -33.14800
      O    O75    41.55800   -5.62300  -32.62600
      C    C76    43.85100   -5.29500  -34.52600
      O    O77    42.70000   -4.48100  -34.60100
      C    C78    43.95000   -6.10000  -35.76100
      N    N79    41.84600   -7.61500  -33.55900
      C    C80    40.51700   -8.10400  -33.31200
      C    C81    40.42700   -8.59400  -31.91400
      O    O82    39.38000   -8.62000  -31.33900
      C    C83    40.26400   -9.24500  -34.21800
      O    O84    41.50000   -9.60100  -34.84600
      C    C85    39.34200   -8.82300  -35.27000
      N    N86    41.56700   -8.99300  -31.35900
      C    C87    41.61600   -9.51000  -29.99700
      C    C88    41.59100   -8.37800  -28.97500
      O    O89    40.79000   -8.38900  -28.04100
      C    C90    42.86300  -10.37300  -29.79600
      C    C91    42.67300  -11.83400  -30.16900
      S    S92    44.23500  -12.68500  -30.46700
      C    C93    44.02500  -14.14500  -29.45200
      N    N94    42.47400   -7.40200  -29.16000
      C    C95    42.49800   -6.21900  -28.30800
      C    C96    41.16500   -5.48000  -28.35400
      O    O97    40.97300   -4.48200  -27.65900
      C    C98    43.62500   -5.25200  -28.71600
      C    C99    43.37200   -4.70100  -30.12100
      C    C100    44.97500   -5.94800  -28.64600
      C    C101    44.59500   -4.08600  -30.76400
      N    N102    40.24600   -5.97700  -29.17600
      C    C103    38.88700   -5.45100  -29.21400
      C    C104    37.97000   -6.22500  -28.27300
      O    O105    36.93200   -5.71900  -27.84700
      C    C106    38.34400   -5.48600  -30.63500
      N    N107    38.36100   -7.45400  -27.95200
      C    C108    37.58100   -8.28700  -27.12300
      C    C109    37.86200   -7.96200  -25.68200
      O    O110    37.27700   -8.58600  -24.83400
      C    C111    37.79600   -9.75700  -27.43500
      C    C112    37.28100  -10.16100  -28.79300
      O    O113    36.58000   -9.39000  -29.44300
      O    O114    37.56800  -11.28200  -29.21200
      N    N115    38.87800   -7.15500  -25.38700
      C    C116    39.41000   -7.23000  -24.05700
      C    C117    38.42500   -6.43200  -23.28700
      O    O118    37.44100   -6.06100  -23.83000
      C    C119    40.59200   -6.32400  -23.96700
      C    C120    41.78400   -6.79000  -24.72800
      C    C121    42.74600   -5.70500  -24.71100
      C    C122    42.32400   -7.91500  -23.99600
      N    N123    38.72000   -5.93600  -22.11300
      C    C124    37.59200   -5.61200  -21.34100
      C    C125    37.72900   -4.31700  -21.97400
      O    O126    38.52100   -4.24800  -22.87600
      C    C127    37.90600   -5.41100  -19.92700
      O    O128    37.54700   -6.58800  -19.21900
      C    C129    37.12400   -4.30300  -19.40000
      N    N130    37.13800   -3.25600  -21.44300
      C    C131    37.70000   -2.00200  -21.84400
      C    C132    38.72000   -1.56200  -20.87400
      O    O133    39.62900   -0.85600  -21.19300
      C    C134    36.65600   -0.92600  -21.96100
      O    O135    36.63300   -0.16600  -20.77200
      C    C136    35.32200   -1.49900  -22.15900
      N    N137    38.48100   -1.90600  -19.63100
      C    C138    39.32900   -1.49400  -18.54300
      C    C139    40.66800   -2.11900  -18.71700
      O    O140    41.64500   -1.62000  -18.23900
      C    C141    38.74100   -1.97300  -17.23700
      C    C142    37.95600   -0.93200  -16.54600
      O    O143    37.86700    0.18000  -17.05200
      O    O144    37.42300   -1.21500  -15.48100
      N    N145    40.69800   -3.25300  -19.38200
      C    C146    41.93800   -3.87400  -19.78400
      C    C147    42.48400   -3.14900  -20.97800
      O    O148    43.66000   -2.80300  -20.99000
      C    C149    41.72700   -5.32300  -20.12700
      C    C150    41.34600   -6.11700  -18.93100
      C    C151    40.87200   -7.50400  -19.28100
      O    O152    40.49100   -8.26400  -18.39700
      N    N153    40.88900   -7.84700  -20.56400
      N    N154    41.64300   -2.89800  -21.97200
      C    C155    42.10200   -2.16100  -23.13700
      C    C156    42.80300   -0.85700  -22.75900
      O    O157    43.91700   -0.59400  -23.21500
      C    C158    40.96000   -1.86400  -24.09400
      C    C159    41.44600   -1.69000  -25.53000
      C    C160    40.31900   -1.72900  -26.53900
      N    N161    39.27000   -2.66300  -26.13500
      C    C162    38.10200   -2.28900  -25.61600
      N    N163    37.79300   -1.00100  -25.44000
      N    N164    37.21200   -3.20800  -25.27900
      N    N165    42.15700   -0.05900  -21.91900
      C    C166    42.71100    1.20000  -21.47100
      C    C167    44.08700    0.94500  -20.90600
      O    O168    45.08100    1.54000  -21.34300
      C    C169    41.84500    1.75300  -20.36500
      C    C170    41.83000    3.26100  -20.24200
      C    C171    41.19200    3.75100  -18.90500
      O    O172    40.60300    2.93500  -18.13300
      O    O173    41.30000    4.97300  -18.62000
      N    N174    44.14800    0.04700  -19.93000
      C    C175    45.36900   -0.11400  -19.15300
      C    C176    46.50300   -0.43600  -20.09900
      O    O177    47.50700    0.28700  -20.17000
      C    C178    45.21000   -1.19100  -18.11200
      N    N179    46.30000   -1.50600  -20.85400
      C    C180    47.24200   -1.92800  -21.84200
      C    C181    47.60200   -0.77700  -22.77600
      O    O182    48.77800   -0.57000  -23.09100
      C    C183    46.67800   -3.09400  -22.64700
      C    C184    47.75800   -3.61700  -23.60600
      C    C185    48.59600   -4.69500  -22.96800
      C    C186    47.17800   -4.10600  -24.91800
      N    N187    46.60800   -0.02600  -23.22500
      C    C188    46.91100    0.99900  -24.19800
      C    C189    47.79200    2.08300  -23.63200
      O    O190    48.77600    2.45400  -24.24200
      C    C191    45.64000    1.58300  -24.80300
      C    C192    44.98800    0.73000  -25.90600
      C    C193    44.04300    1.58000  -26.78800
      C    C194    46.00200   -0.01500  -26.77000
      N    N195    47.43700    2.57900  -22.45200
      C    C196    48.17900    3.66000  -21.80300
      C    C197    49.62300    3.25800  -21.55500
      O    O198    50.56500    4.00200  -21.86800
      C    C199    47.53400    4.02200  -20.46400
      C    C200    46.15000    4.69100  -20.43200
      C    C201    45.67400    4.84800  -18.98800
      C    C202    46.13300    6.03700  -21.13200
      N    N203    49.79300    2.07200  -20.98500
      C    C204    51.11500    1.63600  -20.63100
      C    C205    51.90400    1.24100  -21.85200
      O    O206    53.08700    1.51700  -21.88300
      C    C207    51.11000    0.54300  -19.55700
      O    O208    50.35600   -0.59200  -20.01600
      C    C209    50.50100    1.09300  -18.27800
      N    N210    51.27100    0.65500  -22.86900
      C    C211    52.03600    0.18200  -24.07100
      C    C212    52.05600    1.09000  -25.29800
      O    O213    53.12200    1.22100  -25.93600
      C    C214    51.65900   -1.22500  -24.51600
      C    C215    51.58100   -2.22200  -23.37700
      C    C216    52.73700   -2.11000  -22.40500
      O    O217    52.51500   -2.02500  -21.19300
      N    N218    53.98000   -2.10000  -22.92900
      N    N219    50.90400    1.67000  -25.65000
      C    C220    50.87600    2.67800  -26.70600
      C    C221    51.43800    3.96200  -26.16900
      O    O222    52.41500    4.47000  -26.70500
      C    C223    49.46600    2.93600  -27.29000
      C    C224    49.37300    3.95400  -28.45700
      C    C225    49.97900    3.32500  -29.73200
      C    C226    47.96500    4.44800  -28.71400
      N    N227    50.83900    4.50400  -25.11800
      C    C228    51.41600    5.71200  -24.54100
      C    C229    52.75000    5.47900  -23.80100
      O    O230    53.48400    6.44600  -23.50800
      C    C231    50.40700    6.42300  -23.65800
      C    C232    49.64800    7.48100  -24.45900
      C    C233    49.16800    6.91400  -25.81700
      C    C234    48.50200    8.10800  -23.63700
      N    N235    53.06400    4.20700  -23.52400
      C    C236    54.23500    3.87300  -22.77000
      C    C237    54.25400    4.57800  -21.43100
      O    O238    55.31200    4.94400  -20.95600
      N    N239    53.08800    4.77900  -20.81900
      C    C240    53.03500    5.35500  -19.45900
      C    C241    53.51500    4.36500  -18.39100
      O    O242    53.43300    3.13600  -18.57000
      C    C243    51.63300    5.87800  -19.12400
      C    C244    51.14500    7.10300  -19.90800
      C    C245    49.68100    7.28600  -19.70500
      C    C246    51.88800    8.37300  -19.50300
      N    N247    54.03700    4.89700  -17.29400
      C    C248    54.36800    4.07300  -16.15200
      C    C249    53.05000    3.55400  -15.60200
      O    O250    51.99100    4.05900  -15.96200
      C    C251    54.98500    4.94600  -15.09000
      O    O252    53.96800    5.77200  -14.57000
      N    N253    53.10400    2.57300  -14.70400
      C    C254    51.90000    2.18300  -13.96500
      C    C255    51.34500    3.33000  -13.11000
      O    O256    50.14100    3.54100  -13.06700
      C    C257    52.15900    0.93800  -13.13700
      C    C258    52.28900   -0.30100  -13.99700
      C    C259    53.45500   -1.02900  -14.02000
      C    C260    51.24900   -0.72000  -14.81500
      C    C261    53.58100   -2.16400  -14.81100
      C    C262    51.35800   -1.83700  -15.60400
      C    C263    52.52500   -2.57000  -15.60100
      O    O264    52.64600   -3.70200  -16.40000
      N    N265    52.23100    4.10200  -12.47800
      C    C266    51.80400    5.17100  -11.59300
      C    C267    51.03700    6.19100  -12.40400
      O    O268    49.96900    6.67400  -11.99000
      C    C269    53.00400    5.81600  -10.91700
      N    N270    51.57900    6.51100  -13.57300
      C    C271    50.96900    7.51500  -14.42400
      C    C272    49.62700    7.01900  -14.93700
      O    O273    48.62100    7.70600  -14.78800
      C    C274    51.93200    7.92400  -15.54100
      C    C275    52.89700    9.00100  -15.08600
      O    O276    52.85800    9.33400  -13.86900
      O    O277    53.65400    9.53600  -15.93100
      N    N278    49.62400    5.80300  -15.48400
      C    C279    48.41600    5.12600  -15.91100
      C    C280    47.40400    5.06300  -14.77800
      O    O281    46.26400    5.51700  -14.92700
      C    C282    48.74500    3.78800  -16.34300
      N    N283    47.79800    4.52000  -13.63600
      C    C284    46.86800    4.49900  -12.52300
      C    C285    46.36100    5.90900  -12.34000
      O    O286    45.15800    6.10000  -12.31700
      C    C287    47.49500    3.95300  -11.24900
      N    N288    47.25400    6.90200  -12.27500
      C    C289    46.81000    8.28900  -12.04800
      C    C290    45.70200    8.62300  -13.01900
      O    O291    44.55700    8.79900  -12.60100
      C    C292    47.95500    9.29600  -12.17400
      N    N293    46.06000    8.63700  -14.30400
      C    C294    45.17300    8.90100  -15.42400
      C    C295    43.81200    8.25500  -15.27900
      O    O296    42.80500    8.91300  -15.51900
      C    C297    45.82200    8.44600  -16.74900
      C    C298    44.80300    8.34900  -17.86900
      C    C299    46.94900    9.38400  -17.13600
      N    N300    43.78600    6.98600  -14.86600
      C    C301    42.54100    6.18600  -14.79200
      C    C302    41.71300    6.39900  -13.54400
      O    O303    40.54200    6.00300  -13.50700
      C    C304    42.86100    4.69300  -14.85600
      S    S305    43.33400    4.19700  -16.49100
      N    N306    42.33600    6.99200  -12.52100
      C    C307    41.76600    7.06900  -11.17500
      C    C308    41.67000    5.72100  -10.46400
      O    O309    40.62300    5.39000   -9.94900
      N    N310    42.74900    4.94300  -10.43200
      C    C311    42.79700    3.76400   -9.57900
      C    C312    44.19900    3.55900   -8.97000
      O    O313    45.16200    4.21200   -9.41100
      C    C314    42.37800    2.53100  -10.36500
      S    S315    43.55800    2.05900  -11.66800
      N    N316    44.31700    2.67700   -7.94100
      C    C317    45.63200    2.29600   -7.42800
      C    C318    46.44300    1.54300   -8.46900
      O    O319    45.86600    0.90400   -9.35000
      C    C320    45.30000    1.35000   -6.26000
      C    C321    43.93300    0.86800   -6.52300
      C    C322    43.23700    2.01800   -7.18300
      N    N323    47.76700    1.61100   -8.35400
      C    C324    48.66800    0.89300   -9.27500
      C    C325    48.42000   -0.60700   -9.33400
      O    O326    48.59500   -1.22900  -10.38800
      C    C327    50.17900    1.11800   -8.95400
      C    C328    50.68500    2.39100   -9.63200
      C    C329    50.44600    1.11300   -7.42800
      N    N330    48.02700   -1.18300   -8.20100
      C    C331    47.86500   -2.62000   -8.10800
      C    C332    46.85500   -3.07200   -9.13800
      O    O333    47.03900   -4.10200   -9.81400
      N    N334    45.79000   -2.28700   -9.25600
      C    C335    44.70400   -2.58500  -10.16900
      C    C336    45.19100   -2.57400  -11.64000
      O    O337    44.99000   -3.55900  -12.37400
      C    C338    43.54300   -1.60700   -9.93100
      O    O339    43.02100   -1.80700   -8.61000
      C    C340    42.43700   -1.81400  -10.94100
      N    N341    45.84100   -1.48000  -12.05700
      C    C342    46.48900   -1.40600  -13.37500
      C    C343    47.42300   -2.58400  -13.56900
      O    O344    47.28800   -3.29500  -14.55300
      C    C345    47.32100   -0.10600  -13.59100
      C    C346    46.49000    1.13600  -13.31400
      C    C347    47.87300   -0.03200  -15.01000
      C    C348    45.73000    1.66000  -14.50300
      N    N349    48.36100   -2.77700  -12.64300
      C    C350    49.26400   -3.91900  -12.68400
      C    C351    48.52700   -5.19000  -13.10200
      O    O352    48.94300   -5.88400  -14.01400
      C    C353    49.91400   -4.12100  -11.31100
      C    C354    51.33800   -4.71000  -11.33000
      C    C355    52.27800   -3.80500  -10.50600
      N    N356    53.53900   -3.57000  -11.21800
      C    C357    54.37000   -2.54100  -11.00500
      N    N358    54.07900   -1.60700  -10.08600
      N    N359    55.49900   -2.44000  -11.73200
      N    N360    47.40900   -5.47800  -12.45100
      C    C361    46.65200   -6.67700  -12.77800
      C    C362    45.88000   -6.53800  -14.07100
      O    O363    45.84900   -7.45000  -14.85900
      C    C364    45.67300   -7.03200  -11.66200
      O    O365    44.52300   -6.20700  -11.75100
      N    N366    45.22100   -5.41200  -14.28000
      C    C367    44.50600   -5.21100  -15.53500
      C    C368    45.34800   -5.53700  -16.77100
      O    O369    44.93600   -6.32400  -17.62000
      C    C370    43.95300   -3.80400  -15.62300
      C    C371    42.68500   -3.68400  -14.87400
      C    C372    42.00100   -2.37500  -15.12900
      N    N373    41.15600   -2.04700  -13.97600
      C    C374    40.57600   -0.87100  -13.77100
      N    N375    40.74900    0.11100  -14.64700
      N    N376    39.83800   -0.68000  -12.68300
      N    N377    46.52600   -4.93500  -16.86500
      C    C378    47.45400   -5.31500  -17.90100
      C    C379    47.91700   -6.79900  -17.81100
      O    O380    48.09400   -7.46600  -18.83600
      C    C381    48.58200   -4.28800  -18.05200
      C    C382    48.40500   -3.19100  -17.05400
      C    C383    49.94100   -4.94500  -17.97600
      N    N384    48.05900   -7.35300  -16.61100
      C    C385    48.32100   -8.80000  -16.51200
      C    C386    47.20900   -9.67500  -17.12600
      O    O387    47.50500  -10.57200  -17.90900
      C    C388    48.57000   -9.19300  -15.08400
      N    N389    45.94700   -9.40800  -16.76600
      C    C390    44.77700  -10.09500  -17.33100
      C    C391    44.72800   -9.80800  -18.82500
      O    O392    44.44000  -10.69600  -19.63400
      C    C393    43.47500   -9.62100  -16.65600
      C    C394    43.32500   -9.96800  -15.14000
      C    C395    41.83300  -10.23400  -14.68300
      N    N396    40.87900   -9.13200  -14.95800
      C    C397    39.53600   -9.25700  -15.03000
      N    N398    38.93000  -10.44400  -14.85400
      N    N399    38.78500   -8.18000  -15.30400
      N    N400    45.04500   -8.55600  -19.17100
      C    C401    45.00100   -8.04800  -20.54700
      C    C402    45.92300   -8.85100  -21.43200
      O    O403    45.55800   -9.24800  -22.53800
      C    C404    45.38900   -6.59400  -20.57800
      N    N405    47.11900   -9.09600  -20.90600
      C    C406    48.13800   -9.89400  -21.55600
      C    C407    47.71000  -11.32000  -21.69600
      O    O408    47.86000  -11.90200  -22.76000
      C    C409    49.38900   -9.86800  -20.71600
      C    C410    50.20700   -8.65100  -20.93700
      C    C411    51.36600   -8.68800  -20.00600
      N    N412    52.40400   -7.77200  -20.44600
      C    C413    53.15500   -7.05900  -19.62600
      N    N414    52.95700   -7.14500  -18.32400
      N    N415    54.07900   -6.24900  -20.11900
      N    N416    47.18800  -11.87600  -20.60400
      C    C417    46.68400  -13.24500  -20.57000
      C    C418    45.66000  -13.53600  -21.66700
      O    O419    45.77700  -14.52700  -22.39000
      C    C420    46.05500  -13.53900  -19.20600
      C    C421    46.30300  -14.96700  -18.75800
      O    O422    47.21700  -15.60200  -19.35800
      O    O423    45.61700  -15.44200  -17.81100
      N    N424    44.68000  -12.63700  -21.77700
      C    C425    43.54100  -12.76300  -22.68600
      C    C426    43.99300  -12.86500  -24.14100
      O    O427    43.50700  -13.70700  -24.90900
      C    C428    42.58300  -11.57600  -22.48600
      N    N429    44.94800  -12.00900  -24.49200
      C    C430    45.42700  -11.90700  -25.84800
      C    C431    46.36600  -13.03400  -26.12700
      O    O432    46.70600  -13.25700  -27.28300
      C    C433    46.14700  -10.58500  -26.08400
      C    C434    45.44100   -9.45300  -26.83200
      C    C435    44.14800   -9.05400  -26.13500
      C    C436    46.36500   -8.25000  -26.95600
      N    N437    46.79700  -13.74700  -25.09100
      C    C438    47.65000  -14.90100  -25.34200
      C    C439    46.88200  -16.19600  -25.33200
      O    O440    47.37800  -17.18000  -25.87900
      C    C441    48.80900  -14.99600  -24.36000
      C    C442    49.85300  -13.88500  -24.42400
      C    C443    50.74300  -13.97100  -23.21300
      C    C444    50.63500  -13.99400  -25.71600
      N    N445    45.68300  -16.18200  -24.72200
      C    C446    44.77700  -17.35000  -24.57300
      C    C447    44.70700  -18.23800  -25.81700
      O    O448    44.28500  -17.77600  -26.88600
      C    C449    43.37600  -16.87100  -24.19400
