# CIF file generated by openbabel 2.3.2, see http://openbabel.sf.net
data_I
_chemical_name_common '../proteins/pdb/2QBV.pdb'
_cell_length_a 59.86
_cell_length_b 59.86
_cell_length_c 47.52
_cell_angle_alpha 90
_cell_angle_beta 90
_cell_angle_gamma 90
_space_group_name_H-M_alt 'P 43 21 2'
_space_group_name_Hall 'P 4nw 2abw'
loop_
    _symmetry_equiv_pos_as_xyz
    'x,y,z'
    '-x,-y,1/2+z'
    '1/2-y,1/2+x,3/4+z'
    '1/2+y,1/2-x,1/4+z'
    '1/2-x,1/2+y,3/4-z'
    '1/2+x,1/2-y,1/4-z'
    'y,x,-z'
    '-y,-x,1/2-z'
loop_
    _atom_site_type_symbol
    _atom_site_label
    _atom_site_Cartn_x
    _atom_site_Cartn_y
    _atom_site_Cartn_z
      N    N1    34.63000   55.15200   43.10800
      C    C2    35.46000   53.91100   42.86600
      C    C3    34.76400   52.85300   41.95600
      O    O4    35.37200   52.39900   41.00700
      C    C5    36.01800   53.31500   44.19000
      C    C6    36.60200   51.87700   44.11200
      C    C7    38.01800   51.83100   43.54000
      O    O8    38.83800   51.00000   44.01000
      O    O9    38.31300   52.62100   42.62100
      N    N10    33.52100   52.45700   42.22700
      C    C11    32.81700   51.57100   41.27000
      C    C12    32.69300   52.24400   39.89400
      O    O13    32.87100   51.57800   38.86400
      C    C14    31.43600   51.01100   41.78300
      C    C15    31.65000   49.83700   42.74600
      C    C16    30.60800   50.48200   40.64900
      C    C17    30.45000   48.85900   42.85000
      N    N18    32.42000   53.55400   39.88200
      C    C19    32.47200   54.39300   38.64800
      C    C20    33.78600   54.25900   37.82700
      O    O21    33.76600   54.10400   36.60400
      C    C22    32.28100   55.88100   39.00700
      C    C23    30.81700   56.27500   39.18800
      O    O24    29.92200   55.38300   39.09000
      O    O25    30.55900   57.48800   39.41800
      N    N26    34.91200   54.32900   38.52600
      C    C27    36.25200   54.29900   37.95300
      C    C28    36.63200   52.86700   37.51500
      O    O29    37.25400   52.68700   36.49500
      C    C30    37.32800   55.02500   38.87300
      O    O31    38.25100   54.10300   39.45900
      C    C32    36.67300   55.83800   39.95800
      N    N33    36.19100   51.86200   38.26400
      C    C34    36.27700   50.47300   37.82100
      C    C35    35.45700   50.18200   36.54900
      O    O36    35.98800   49.57700   35.63100
      C    C37    35.88400   49.54900   38.96500
      C    C38    36.89700   48.93700   39.94900
      C    C39    38.29300   49.56700   40.00000
      C    C40    36.23700   48.89800   41.31300
      N    N41    34.18500   50.62700   36.48600
      C    C42    33.37400   50.49600   35.25600
      C    C43    33.35300   50.56500   35.26500
      C    C44    34.01600   51.21700   34.06400
      O    O45    33.94300   50.70300   32.94600
      C    C46    31.88600   50.93000   35.46800
      C    C47    31.97300   51.23800   35.49600
      C    C48    31.09200   50.06600   36.53000
      C    C49    30.98900   50.38200   36.31000
      C    C50    29.51500   50.27000   36.58400
      C    C51    29.60900   51.03100   36.63900
      N    N52    28.86400   49.55100   37.72600
      N    N53    28.80700   50.01100   37.32900
      C    C54    28.61400   48.22700   37.79900
      C    C55    28.01500   50.19200   38.39000
      N    N56    28.03200   47.68800   38.89600
      N    N57    27.38000   49.14300   38.91500
      N    N58    28.95000   47.42900   36.78500
      N    N59    27.86400   51.39100   38.94000
      N    N60    34.62700   52.38700   34.28000
      C    C61    35.36400   53.09800   33.26300
      C    C62    36.52900   52.30300   32.76200
      O    O63    36.84600   52.41300   31.61200
      C    C64    35.84500   54.45900   33.75300
      C    C65    34.68300   55.43300   33.99400
      C    C66    35.09900   56.78200   34.57200
      O    O67    36.10600   56.84400   35.31700
      O    O68    34.41400   57.79600   34.26100
      N    N69    37.16700   51.51800   33.63100
      C    C70    38.30700   50.70800   33.27000
      C    C71    37.78000   49.48200   32.47900
      O    O72    38.38600   49.08100   31.52600
      C    C73    39.15300   50.37200   34.51000
      C    C74    40.24000   49.25800   34.40800
      C    C75    41.35800   49.55500   33.38400
      O    O76    41.34500   50.62300   32.74800
      O    O77    42.24100   48.70700   33.17300
      N    N78    36.62800   48.93200   32.83200
      C    C79    36.01200   47.90800   31.96800
      C    C80    35.71200   48.44300   30.59000
      O    O81    36.01100   47.75200   29.60000
      C    C82    34.69400   47.41000   32.57200
      C    C83    34.96400   46.69800   33.87500
      C    C84    33.99400   46.43100   31.63300
      C    C85    35.41700   45.27400   33.67500
      N    N86    35.15500   49.65100   30.48200
      C    C87    34.93100   50.25200   29.16500
      C    C88    36.19500   50.33400   28.27500
      O    O89    36.09100   50.07800   27.07000
      C    C90    34.23400   51.61000   29.31700
      C    C91    32.86700   51.47200   29.96800
      O    O92    32.32400   50.36000   29.92300
      O    O93    32.36000   52.46300   30.52000
      N    N94    37.34900   50.65300   28.88200
      C    C95    38.62600   50.75100   28.17500
      C    C96    38.66300   50.72100   28.22900
      C    C97    39.12100   49.35200   27.67600
      O    O98    39.53100   49.19100   26.50600
      C    C99    39.68600   51.45400   29.06900
      C    C100    39.71000   51.17500   29.26600
      C    C101    39.47800   52.97900   29.30900
      C    C102    39.66200   52.62200   29.66000
      C    C103    40.56400   53.55100   30.26700
      C    C104    40.77800   52.94400   30.66900
      N    N105    40.06100   54.60400   31.16300
      N    N106    40.73500   54.34400   31.02600
      C    C107    39.96000   54.49600   32.48900
      C    C108    41.13400   55.33600   30.22900
      N    N109    40.34800   53.38700   33.09600
      N    N110    41.67300   55.06600   29.04700
      N    N111    39.49500   55.50200   33.21700
      N    N112    41.02100   56.60500   30.62500
      N    N113    39.08300   48.37000   28.54800
      C    C114    39.40300   46.95400   28.31600
      C    C115    38.52600   46.36800   27.26200
      O    O116    39.05300   45.70400   26.31900
      C    C117    39.24100   46.17700   29.65600
      C    C118    40.27800   46.59800   30.67500
      C    C119    39.94000   45.88300   31.93700
      C    C120    41.72500   46.23200   30.22600
      N    N121    37.22200   46.68900   27.28200
      C    C122    36.33500   46.26200   26.13900
      C    C123    36.64600   46.89800   24.81200
      O    O124    36.58500   46.27900   23.71300
      C    C125    34.85500   46.53000   26.51500
      C    C126    34.30600   45.47200   27.43100
      O    O127    34.86900   44.37900   27.43300
      O    O128    33.28700   45.72600   28.09000
      N    N129    36.93100   48.18300   24.83300
      C    C130    37.36500   48.84000   23.60200
      C    C131    38.63600   48.20200   22.99400
      O    O132    38.74600   48.02300   21.73000
      C    C133    37.57400   50.35900   23.89000
      N    N134    39.63300   47.89300   23.82800
      C    C135    40.88100   47.25400   23.41300
      C    C136    40.68300   45.84300   22.88400
      O    O137    41.20000   45.49300   21.82600
      C    C138    41.94300   47.27700   24.48700
      C    C139    42.41400   48.69500   24.79400
      C    C140    43.25600   49.21000   23.70500
      O    O141    44.42800   48.81900   23.65700
      O    O142    42.74400   49.94800   22.84600
      N    N143    39.87500   45.06900   23.61400
      C    C144    39.54400   43.66100   23.27400
      C    C145    38.76700   43.69200   21.93000
      O    O146    39.12200   43.01600   20.97600
      C    C147    38.75300   42.97400   24.52600
      C    C148    39.66900   42.73900   25.69200
      C    C149    38.10400   41.63200   24.23800
      C    C150    38.83700   42.29400   26.87600
      N    N151    37.79100   44.57800   21.78200
      C    C152    37.04600   44.57400   20.54100
      C    C153    37.91800   44.85000   19.30300
      O    O154    37.79900   44.14500   18.29700
      C    C155    35.86100   45.53900   20.58600
      C    C156    34.94900   45.42400   19.32800
      C    C157    34.24700   44.10200   19.31100
      C    C158    33.89200   46.55800   19.29400
      N    N159    38.75500   45.88700   19.37700
      C    C160    39.77400   46.25500   18.37800
      C    C161    40.68800   45.03800   18.02800
      O    O162    40.89300   44.73800   16.87800
      C    C163    40.60600   47.48200   18.95600
      N    N164    41.24600   44.34000   19.03600
      C    C165    42.12300   43.16500   18.83500
      C    C166    41.44100   41.98000   18.21000
      O    O167    42.01500   41.29000   17.35000
      C    C168    42.75300   42.71700   20.17600
      C    C169    43.71100   43.73000   20.82200
      C    C170    43.92700   43.38500   22.30900
      C    C171    45.04200   43.73700   20.17900
      N    N172    40.21900   41.73400   18.64800
      C    C173    39.36900   40.66600   18.07900
      C    C174    38.94200   40.92400   16.63600
      O    O175    38.95400   40.00300   15.81500
      C    C176    38.16600   40.28900   19.00700
      C    C177    37.20900   39.25900   18.32600
      C    C178    38.65700   39.72700   20.32000
      N    N179    38.52600   42.14900   16.32000
      C    C180    38.29300   42.52400   14.94900
      C    C181    39.51600   42.25000   14.11100
      O    O182    39.41300   41.67100   13.09000
      C    C183    37.89500   44.01500   14.81900
      C    C184    36.49800   44.35900   15.24000
      C    C185    36.29500   45.86300   14.98100
      C    C186    35.05900   46.37700   15.69600
      N    N187    34.68400   47.80200   15.31600
      N    N188    40.68300   42.70100   14.54000
      C    C189    41.93300   42.47800   13.80100
      C    C190    42.36300   41.00500   13.68300
      O    O191    42.87400   40.59800   12.67400
      C    C192    43.03400   43.30100   14.46100
      C    C193    44.32000   43.22400   13.67700
      C    C194    45.36700   44.00500   14.38100
      N    N195    46.65600   43.98000   13.69200
      C    C196    46.84100   43.92900   12.36800
      N    N197    45.90400   43.34000   11.51000
      N    N198    47.98600   43.44200   11.89300
      N    N199    42.20700   40.22000   14.73200
      C    C200    42.47700   38.78000   14.70700
      C    C201    41.60100   38.08000   13.66900
      O    O202    42.08300   37.21200   12.95600
      C    C203    42.20000   38.21400   16.12900
      C    C204    42.92600   36.87300   16.46100
      C    C205    42.11400   35.94500   17.34700
      N    N206    42.91200   34.73800   17.68200
      C    C207    42.94500   33.63900   16.91500
      N    N208    42.21200   33.56600   15.78300
      N    N209    43.72000   32.61800   17.26200
      N    N210    40.31800   38.46700   13.55200
      C    C211    39.43800   37.90900   12.50600
      C    C212    39.92900   38.25800   11.10800
      O    O213    39.94600   37.41000   10.27300
      C    C214    37.97500   38.29400   12.71000
      N    N215    40.39700   39.46500   10.86700
      C    C216    40.90500   39.81600    9.57500
      C    C217    42.19600   39.09200    9.22900
      O    O218    42.35300   38.65900    8.07200
      C    C219    41.03500   41.35000    9.37700
      C    C220    39.68200   42.13400    9.45500
      C    C221    38.48700   41.53300    8.61600
      O    O222    38.43500   41.86000    7.39600
      O    O223    37.58000   40.78900    9.17300
      N    N224    43.14700   38.99700   10.18100
      C    C225    44.37400   38.20100    9.98200
      C    C226    44.00100   36.70000    9.73800
      O    O227    44.55300   36.06400    8.83800
      C    C228    45.37500   38.40900   11.17300
      C    C229    46.58600   37.53900   11.06000
      C    C230    45.74700   39.88400   11.28800
      N    N231    43.02900   36.15200   10.46900
      C    C232    42.68300   34.72600   10.34300
      C    C233    42.11600   34.42300    8.97800
      O    O234    42.42100   33.38600    8.39000
      C    C235    41.58600   34.31100   11.30900
      O    O236    42.03700   34.16200   12.63500
      N    N237    41.21400   35.28900    8.52300
      C    C238    40.63200   35.18000    7.17300
      C    C239    41.68000   35.34100    6.08700
      O    O240    41.55400   34.71400    5.06700
      C    C241    39.48800   36.16400    6.98500
      C    C242    38.40100   36.05200    8.07300
      C    C243    37.36000   37.10200    7.81900
      C    C244    36.19800   36.98500    8.77400
      N    N245    35.56900   38.33600    8.88300
      N    N246    42.68500   36.18900    6.28400
      C    C247    43.82600   36.27700    5.34900
      C    C248    44.59400   34.95200    5.26000
      O    O249    44.87800   34.47400    4.16200
      C    C250    44.78200   37.42200    5.72000
      N    N251    44.91100   34.38100    6.41900
      C    C252    45.56900   33.08100    6.51100
      C    C253    44.75000   31.97800    5.83700
      O    O254    45.30400   31.14500    5.16300
      C    C255    45.84100   32.68700    7.96700
      C    C256    46.85200   33.63200    8.58800
      C    C257    46.41300   31.28600    8.02500
      C    C258    47.02700   33.40300   10.11300
      N    N259    43.43800   31.97700    6.02700
      C    C260    42.55400   30.96000    5.49600
      C    C261    42.37300   31.07400    3.99900
      O    O262    42.27600   30.07000    3.31200
      N    N263    42.33700   32.30100    3.48600
      C    C264    42.41000   32.53300    2.05000
      C    C265    43.72800   32.01700    1.42100
      O    O266    43.66400   31.22900    0.47900
      C    C267    42.05200   33.99200    1.71700
      C    C268    40.52700   34.26500    1.96200
      C    C269    40.13100   35.74200    2.18400
      C    C270    38.59600   35.91200    2.26700
      N    N271    37.89600   35.86300    3.63000
      N    N272    44.89700   32.42700    1.93000
      C    C273    46.17300   31.89300    1.43000
      C    C274    46.23000   30.38500    1.53800
      O    O275    46.86100   29.75100    0.69700
      C    C276    47.40500   32.51400    2.13000
      N    N277    45.59900   29.79600    2.56700
      C    C278    45.68300   28.33400    2.71900
      C    C279    44.75900   27.60900    1.76900
      O    O280    45.13700   26.58900    1.21400
      C    C281    45.45900   27.87800    4.14300
      C    C282    45.58100   26.38800    4.27500
      C    C283    45.06000   25.88500    5.59800
      N    N284    43.84800   26.56900    6.05600
      C    C285    42.61100   26.16900    5.79200
      N    N286    42.42000   25.06700    5.04800
      N    N287    41.56500   26.86000    6.28300
      N    N288    43.57800   28.15100    1.54100
      C    C289    42.63600   27.55400    0.60700
      C    C290    42.99800   27.73200   -0.87800
      O    O291    42.58400   26.91600   -1.71300
      C    C292    41.21700   28.02100    0.90700
      C    C293    40.70600   27.36600    2.21400
      S    S294    39.14400   27.99800    2.91600
      C    C295    39.66800   28.96400    4.33900
      N    N296    43.78000   28.77300   -1.18500
      C    C297    44.37800   28.98900   -2.51000
      C    C298    45.51700   28.03700   -2.82000
      O    O299    45.96200   27.94700   -3.97900
      C    C300    44.90100   30.39700   -2.62300
      N    N301    46.05300   27.40500   -1.77200
      C    C302    47.05600   26.35000   -1.88000
      C    C303    46.42900   24.98600   -1.64500
      O    O304    47.15500   24.00800   -1.59800
      C    C305    48.16000   26.54700   -0.84300
      O    O306    48.85200   27.75300   -1.05500
      N    N307    45.11000   24.90800   -1.45300
      C    C308    44.47200   23.63500   -1.06200
      C    C309    45.10900   22.90300    0.12900
      O    O310    44.89700   21.69100    0.31000
      N    N311    45.86100   23.64500    0.95000
      C    C312    46.45600   23.17000    2.21500
      C    C313    45.47600   22.72700    3.29900
      O    O314    44.33200   23.22400    3.39500
      N    N315    45.94600   21.78100    4.11300
      C    C316    45.19700   21.16400    5.17300
      C    C317    45.20000   22.10000    6.37000
      O    O318    46.24200   22.64400    6.76900
      C    C319    45.87000   19.83100    5.53600
      O    O320    45.78100   18.95000    4.41300
      C    C321    45.23700   19.17600    6.68200
      N    N322    44.01600   22.22600    6.95900
      C    C323    43.80900   23.07300    8.07600
      C    C324    44.54600   22.45200    9.21200
      O    O325    44.59000   21.21000    9.35800
      C    C326    42.33400   23.21400    8.43100
      C    C327    42.03600   24.32400    9.47000
      C    C328    40.64800   24.87900    9.28000
      N    N329    39.66200   24.23100   10.12200
      C    C330    38.85100   23.23500    9.75000
      N    N331    38.91600   22.67400    8.53100
      N    N332    37.97800   22.76300   10.62900
      N    N333    45.11600   23.32400   10.03400
      C    C334    45.92700   22.86900   11.15500
      C    C335    45.06200   22.72700   12.40600
      O    O336    45.31900   23.32600   13.41500
      C    C337    47.12800   23.81300   11.30800
      C    C338    48.24100   23.87900   10.27900
      C    C339    49.25200   24.94300   10.67100
      C    C340    48.93200   22.49800   10.14600
      N    N341    44.07700   21.84700   12.35600
      C    C342    43.10400   21.69000   13.41600
      C    C343    43.69600   21.06000   14.66000
      O    O344    43.55500   21.56600   15.79000
      C    C345    41.92800   20.77900   12.94100
      C    C346    40.94900   20.52400   14.14400
      C    C347    41.22900   21.40000   11.73200
      N    N348    44.38400   19.94600   14.47700
      C    C349    44.86700   19.16800   15.64300
      C    C350    46.14000   19.74700   16.29400
      O    O351    46.42500   19.44500   17.47100
      C    C352    45.03200   17.66500   15.25300
      C    C353    43.78500   17.07200   14.67200
      N    N354    42.57600   17.11500   15.31600
      C    C355    43.55300   16.46400   13.47900
      C    C356    41.65200   16.53500   14.57300
      N    N357    42.21200   16.15000   13.44100
      N    N358    46.90500   20.52600   15.51700
      C    C359    48.14500   21.09800   15.97800
      C    C360    47.94000   22.53700   16.40600
      O    O361    47.78400   22.83100   17.59800
      C    C362    49.31400   20.95200   14.98800
      O    O363    49.05700   21.50000   13.69100
      N    N364    47.96500   23.42300   15.43900
      C    C365    47.80200   24.86300   15.65700
      C    C366    46.54600   25.25400   16.46100
      O    O367    46.66800   25.87100   17.47500
      C    C368    47.95700   25.58700   14.29300
      C    C369    47.61900   27.06800   14.23700
      C    C370    48.61300   27.87200   14.98200
      N    N371    48.27900   29.29500   14.88300
      C    C372    49.04200   30.23600   15.37900
      N    N373    50.16100   29.89000   15.95800
      N    N374    48.70800   31.50800   15.25200
      N    N375    45.36700   24.87000   16.03700
      C    C376    44.13600   25.28700   16.70900
      C    C377    44.02900   24.77100   18.13900
      O    O378    43.47500   25.44900   19.01600
      C    C379    42.86700   24.87200   15.92500
      C    C380    42.84200   25.41100   14.48900
      C    C381    41.47300   25.32400   13.79100
      O    O382    40.53600   24.72900   14.39900
      O    O383    41.35200   25.88200   12.64900
      N    N384    44.52900   23.56200   18.36700
      C    C385    44.64300   23.03800   19.74200
      C    C386    45.60400   23.84700   20.61000
      O    O387    45.30800   24.08600   21.75000
      C    C388    45.05400   21.55600   19.70100
      C    C389    44.31900   20.64800   20.67800
      S    S390    42.50100   20.80600   20.71400
      C    C391    41.95800   20.86200   18.96600
      N    N392    46.74800   24.29000   20.09900
      C    C393    47.62000   25.15500   20.90200
      C    C394    46.94500   26.52800   21.17900
      O    O395    47.17900   27.12700   22.21500
      C    C396    48.99100   25.33200   20.23900
      C    C397    49.67600   23.98500   19.77700
      C    C398    50.76100   23.41200   20.74200
      C    C399    51.65700   22.28900   20.05400
      N    N400    51.54500   22.13600   18.48400
      N    N401    46.10100   27.00200   20.27000
      C    C402    45.36600   28.27100   20.47300
      C    C403    44.40300   28.10300   21.62600
      O    O404    44.36900   28.93200   22.50000
      C    C405    44.61700   28.82900   19.19900
      C    C406    43.67500   29.96100   19.60300
      C    C407    45.55100   29.32400   18.13700
      N    N408    43.62300   27.01900   21.60500
      C    C409    42.72600   26.61200   22.70900
      C    C410    43.47700   26.43800   24.03700
      O    O411    43.01000   26.94000   25.06200
      C    C412    41.85300   25.33500   22.35900
      C    C413    40.77800   25.67500   21.30000
      C    C414    41.25400   24.71300   23.60300
      C    C415    40.22800   24.51300   20.53700
      N    N416    44.62300   25.75000   24.02100
      C    C417    45.43300   25.57600   25.23200
      C    C418    45.47100   25.56900   25.21100
      C    C419    45.82900   26.89300   25.87500
      O    O420    45.71400   27.03600   27.07100
      C    C421    46.65100   24.67600   24.97200
      C    C422    46.77300   24.84300   24.85900
      C    C423    48.02700   25.20800   25.42100
      C    C424    46.69200   23.30800   24.71600
      C    C425    48.42200   24.86400   26.86300
      C    C426    47.92100   22.71100   23.95700
      O    O427    47.73400   24.06000   27.53400
      O    O428    47.73600   21.72000   23.21300
      O    O429    49.44300   25.41800   27.32600
      O    O430    49.06100   23.23700   24.09200
      N    N431    46.30300   27.85500   25.09100
      C    C432    46.65600   29.14100   25.63200
      C    C433    45.49200   29.82200   26.33400
      O    O434    45.67700   30.35500   27.41600
      C    C435    47.24100   30.04500   24.56000
      C    C436    48.61300   29.64600   24.22800
      C    C437    49.23200   30.58700   23.24200
      N    N438    48.81500   30.33100   21.85800
      C    C439    49.41900   29.46000   21.04600
      N    N440    50.45000   28.72400   21.48600
      N    N441    49.01900   29.34100   19.78900
      N    N442    44.28500   29.77300   25.77300
      C    C443    43.14300   30.44000   26.42200
      C    C444    42.56200   29.67300   27.64100
      O    O445    41.88300   30.25800   28.47400
      C    C446    42.07800   30.76000   25.40200
      C    C447    42.39700   31.98700   24.55500
      C    C448    42.88300   31.85300   23.26600
      C    C449    42.19600   33.28300   25.06500
      C    C450    43.14200   32.96800   22.46600
      C    C451    42.47500   34.41700   24.29100
      C    C452    42.96700   34.24300   23.00500
      O    O453    43.20100   35.33700   22.24900
      N    N454    42.93000   28.39400   27.74700
      C    C455    42.43900   27.43800   28.73500
      C    C456    42.34800   27.51900   28.73400
      C    C457    42.87200   27.80900   30.14000
      O    O458    42.28500   27.34200   31.11800
      C    C459    42.94600   26.01800   28.41500
      C    C460    42.51500   26.04800   28.32000
      O    O461    44.30000   25.84000   28.80600
      O    O462    41.57400   25.73900   27.29500
      N    N463    43.92800   28.62100   30.22000
      C    C464    44.41900   29.20900   31.48600
      C    C465    43.36300   30.13700   32.20500
      O    O466    43.51300   30.46500   33.38900
      C    C467    45.68200   29.99700   31.17200
      C    C468    46.60400   30.21300   32.31900
      C    C469    47.11200   31.64700   32.40500
      O    O470    48.05500   32.04100   31.66500
      O    O471    46.57100   32.38900   33.24400
      N    N472    42.32200   30.57000   31.48400
      C    C473    41.15700   31.26900   32.05300
      C    C474    40.11400   30.32100   32.63300
      O    O475    39.09700   30.74200   33.19200
      C    C476    40.49600   32.13700   30.98900
      C    C477    41.33300   33.20100   30.26300
      C    C478    40.69000   33.53900   28.93900
      C    C479    41.47800   34.45300   31.13000
      N    N480    40.34700   29.03200   32.50800
      C    C481    39.28700   28.08900   32.79300
      C    C482    38.61800   27.54500   31.54900
      O    O483    39.11500   27.72400   30.43800
      N    N484    37.49400   26.83900   31.73600
      C    C485    36.54500   26.32300   30.74400
      C    C486    35.96400   27.37600   29.82400
      O    O487    35.71600   27.10700   28.63300
      C    C488    35.41200   25.74200   31.62200
      C    C489    36.10100   25.33300   32.82700
      C    C490    37.09900   26.43400   33.09600
      N    N491    35.71500   28.55800   30.37300
      C    C492    35.19800   29.61200   29.54900
      C    C493    36.29300   30.11600   28.62700
      O    O494    35.98500   30.58800   27.54600
      C    C495    34.51100   30.69900   30.36700
      C    C496    33.17600   30.21900   30.96100
      O    O497    32.36300   29.59100   30.23000
      O    O498    32.93900   30.47900   32.16200
      N    N499    37.55400   29.92800   29.01100
      C    C500    38.70400   30.23800   28.15200
      C    C501    38.78800   29.34300   26.92100
      O    O502    39.05800   29.81500   25.83000
      N    N503    38.54100   28.04400   27.07500
      C    C504    38.48400   27.20500   25.88900
      C    C505    37.34900   27.62600   24.95600
      O    O506    37.52900   27.61700   23.73400
      C    C507    38.38900   25.72800   26.27900
      C    C508    38.20100   24.68800   25.12100
      C    C509    37.86800   23.25700   25.72400
      C    C510    37.65600   22.17400   24.66900
      N    N511    38.95100   21.44000   24.39800
      N    N512    36.18300   27.99100   25.50300
      C    C513    35.02100   28.40300   24.66200
      C    C514    35.29300   29.72600   23.94300
      O    O515    34.81700   29.96600   22.80700
      C    C516    33.71300   28.54700   25.50900
      C    C517    33.25000   27.21700   26.11800
      O    O518    33.60500   26.13400   25.55700
      O    O519    32.57000   27.26300   27.18100
      N    N520    36.03300   30.57300   24.63000
      C    C521    36.50200   31.86800   24.11000
      C    C522    37.40500   31.61800   22.87000
      O    O523    37.17600   32.20100   21.84000
      C    C524    37.21400   32.68600   25.23500
      C    C525    38.00800   33.96600   24.82200
      C    C526    37.09600   34.90400   24.18800
      C    C527    38.75000   34.68800   25.91700
      N    N528    38.41600   30.77000   23.01200
      C    C529    39.30200   30.34700   21.89200
      C    C530    38.50800   29.77100   20.74100
      O    O531    38.72600   30.10600   19.58600
      C    C532    40.27200   29.34100   22.36800
      N    N533    37.53000   28.92800   21.07300
      C    C534    36.59900   28.39700   20.06500
      C    C535    35.83100   29.48900   19.28500
      O    O536    35.80000   29.44200   18.06400
      C    C537    35.70400   27.29100   20.66400
      C    C538    36.59800   26.10600   21.11500
      C    C539    34.66800   26.85300   19.64700
      C    C540    35.91200   25.08300   22.01200
      N    N541    35.26800   30.48900   19.96400
      C    C542    34.66700   31.67300   19.32100
      C    C543    35.64000   32.46200   18.44800
      O    O544    35.33000   32.83700   17.32000
      C    C545    34.08500   32.60600   20.41600
      C    C546    32.56000   32.76300   20.64100
      C    C547    31.72300   31.55400   20.16800
      C    C548    32.23900   33.07300   22.09500
      N    N549    36.82100   32.75600   18.98500
      C    C550    37.88100   33.40900   18.20500
      C    C551    38.17700   32.60200   16.93200
      O    O552    38.26300   33.14900   15.82500
      C    C553    39.14500   33.58000   19.04000
      C    C554    38.92700   34.58800   20.18500
      C    C555    40.20700   34.67100   20.95100
      C    C556    38.45900   35.94600   19.58500
      N    N557    38.31900   31.29000   17.07900
      C    C558    38.43600   30.44600   15.86900
      C    C559    37.22800   30.59700   14.90900
      O    O560    37.47200   30.83100   13.72400
      C    C561    38.78600   28.98200   16.23800
      C    C562    40.09700   28.73500   16.97200
      C    C563    40.10100   27.31800   17.49400
      C    C564    41.33900   29.00600   16.10300
      N    N565    35.96500   30.52700   15.39000
      C    C566    34.76500   30.68500   14.52500
      C    C567    34.80800   30.64900   14.49600
      C    C568    34.78000   32.02000   13.82600
      O    O569    34.39000   32.13500   12.64600
      C    C570    33.47200   30.65000   15.33200
      C    C571    33.48900   30.37500   15.22400
      C    C572    32.61500   29.38100   15.26500
      C    C573    33.42900   29.05200   16.07400
      C    C574    31.33500   29.54200   16.14800
      C    C575    32.00100   28.81400   16.70500
      N    N576    30.33600   30.37200   15.47700
      N    N577    31.74400   27.44900   17.22100
      C    C578    29.43900   29.93800   14.58400
      C    C579    32.19600   26.30400   16.70000
      N    N580    29.38400   28.65200   14.23800
      N    N581    32.91700   26.29200   15.59600
      N    N582    28.59700   30.80200   14.02800
      N    N583    31.90000   25.14700   17.27200
      N    N584    35.20300   33.04900   14.57800
      C    C585    35.22500   34.44600   14.14200
      C    C586    36.22800   34.63300   12.96900
      O    O587    35.96600   35.38600   12.00100
      C    C588    35.54700   35.35100   15.36800
      C    C589    34.68200   36.52600   15.86800
      C    C590    33.23600   36.48700   15.41600
      C    C591    34.76000   36.66300   17.39500
      N    N592    37.33200   33.88300   13.00800
      C    C593    38.31700   33.92100   11.92200
      C    C594    38.01800   33.06600   10.70300
      O    O595    38.94700   32.68300    9.99700
      N    N596    36.72900   32.81000   10.43800
      C    C597    36.22400   31.88500    9.39400
      C    C598    36.95300   30.53800    9.34600
      O    O599    36.50000   29.53500    9.90800
      C    C600    36.25900   32.53600    8.01700
      C    C601    35.00900   33.28300    7.68700
      C    C602    34.89200   33.35300    6.16900
      N    N603    34.10300   32.24100    5.62600
      C    C604    32.92200   32.37500    5.00400
      N    N605    32.37900   33.58200    4.82700
      N    N606    32.27700   31.29800    4.54100
