# CIF file generated by openbabel 2.3.2, see http://openbabel.sf.net
data_I
_chemical_name_common '../proteins/pdb/2R9L.pdb'
_cell_length_a 48.531
_cell_length_b 111.788
_cell_length_c 139.542
_cell_angle_alpha 90
_cell_angle_beta 90
_cell_angle_gamma 90
_space_group_name_H-M_alt 'P 21 21 21'
_space_group_name_Hall 'P 2ac 2ab'
loop_
    _symmetry_equiv_pos_as_xyz
    'x,y,z'
    '1/2-x,-y,1/2+z'
    '-x,1/2+y,1/2-z'
    '1/2+x,1/2-y,-z'
loop_
    _atom_site_type_symbol
    _atom_site_label
    _atom_site_Cartn_x
    _atom_site_Cartn_y
    _atom_site_Cartn_z
      O    O1     5.05100   -0.84700   -8.02000
      P    P2     5.84300   -2.09300   -8.19000
      O    O3     7.04600   -2.26100   -7.34700
      O    O4     4.95900   -3.25500   -7.96700
      O    O5     6.27100   -2.19500   -9.71800
      C    C6     6.99500   -3.32100  -10.18000
      C    C7     8.11000   -2.87900  -11.11100
      O    O8     7.56700   -2.59900  -12.42600
      C    C9     8.86300   -1.60700  -10.72200
      O    O10    10.19700   -1.83800  -11.16200
      C    C11     8.10400   -0.49800  -11.47500
      C    C12     7.66200   -1.21700  -12.75200
      N    N13     6.34300   -0.92300  -13.31900
      C    C14     5.21200   -0.50900  -12.65400
      N    N15     4.17700   -0.36300  -13.43800
      C    C16     4.64000   -0.71500  -14.70200
      C    C17     3.97000   -0.76400  -15.95700
      O    O18     2.79200   -0.49900  -16.23000
      N    N19     4.80800   -1.16400  -16.98600
      C    C20     6.12600   -1.49000  -16.83800
      N    N21     6.75200   -1.86000  -17.96200
      N    N22     6.77100   -1.46000  -15.67400
      C    C23     5.97100   -1.06200  -14.64600
      P    P24    11.37800   -0.75800  -11.10500
      O    O25    12.65000   -1.50000  -11.13800
      O    O26    11.13600    0.23400  -10.02900
      O    O27    11.22200   -0.03600  -12.52000
      C    C28    11.50100   -0.77700  -13.69500
      C    C29    11.38300    0.13100  -14.89600
      O    O30     9.99000    0.24300  -15.25100
      C    C31    11.85600    1.56200  -14.68000
      O    O32    12.57100    1.95900  -15.83600
      C    C33    10.54700    2.33900  -14.55900
      C    C34     9.73300    1.57300  -15.60100
      N    N35     8.26500    1.82300  -15.58700
      C    C36     7.53200    1.64300  -16.76300
      O    O37     8.12000    1.26700  -17.78000
      N    N38     6.19500    1.88100  -16.75400
      C    C39     5.59500    2.28300  -15.62900
      N    N40     4.27600    2.50300  -15.66100
      C    C41     6.32100    2.46800  -14.41400
      C    C42     7.64200    2.23600  -14.44000
      P    P43    13.79000    2.98100  -15.70700
      O    O44    14.96600    2.22400  -15.22000
      O    O45    13.30200    4.16000  -14.96200
      O    O46    14.06200    3.40000  -17.22800
      C    C47    14.09700    2.38300  -18.22300
      C    C48    13.39400    2.85100  -19.48000
      O    O49    11.96300    2.87700  -19.24800
      C    C50    13.79100    4.25200  -19.95400
      O    O51    14.07800    4.17600  -21.33800
      C    C52    12.56600    5.11800  -19.65500
      C    C53    11.43100    4.10200  -19.71900
      N    N54    10.27300    4.42700  -18.89400
      C    C55    10.27200    4.79300  -17.56900
      N    N56     9.08200    5.01700  -17.08900
      C    C57     8.23600    4.77800  -18.16700
      C    C58     6.82200    4.85600  -18.25400
      O    O59     6.02100    5.16900  -17.35700
      N    N60     6.35800    4.53100  -19.52900
      C    C61     7.16100    4.17600  -20.58600
      N    N62     6.53600    3.89100  -21.74000
      N    N63     8.48900    4.09800  -20.51600
      C    C64     8.95500    4.41200  -19.28300
      P    P65    14.38700    5.46100  -22.22700
      O    O66    15.28100    5.05200  -23.33200
      O    O67    14.78800    6.58500  -21.35900
      O    O68    12.93300    5.75900  -22.81100
      C    C69    12.31400    4.83900  -23.69700
      C    C70    11.40200    5.59100  -24.64600
      O    O71    10.11200    5.77500  -24.00800
      C    C72    11.89000    6.98600  -25.02100
      O    O73    11.49200    7.29100  -26.35100
      C    C74    11.19600    7.89200  -24.00900
      C    C75     9.88500    7.14900  -23.76000
      N    N76     9.39400    7.32600  -22.39400
      C    C77    10.14600    7.37900  -21.24400
      N    N78     9.43100    7.56200  -20.17000
      C    C79     8.12700    7.63800  -20.64000
      C    C80     6.91800    7.83500  -19.93900
      O    O81     6.75800    7.98300  -18.72000
      N    N82     5.81600    7.85100  -20.79300
      C    C83     5.87700    7.70800  -22.15400
      N    N84     4.70500    7.76300  -22.80100
      N    N85     7.00400    7.52200  -22.82600
      C    C86     8.08400    7.49600  -22.00600
      P    P87    12.01700    8.62500  -27.04600
      O    O88    12.16300    8.34900  -28.48500
      O    O89    13.18500    9.09300  -26.26100
      O    O90    10.80700    9.66500  -26.84300
      C    C91     9.52800    9.37100  -27.39900
      C    C92     8.40000   10.14400  -26.73100
      O    O93     8.21200    9.70500  -25.36300
      C    C94     8.57500   11.64800  -26.58400
      O    O95     8.17900   12.29000  -27.77600
      C    C96     7.59100   11.98700  -25.46600
      C    C97     7.39700   10.66600  -24.72000
      N    N98     7.79000   10.75500  -23.29200
      C    C99     6.81200   10.95200  -22.31100
      O    O100     5.62600   11.04700  -22.65000
      N    N101     7.19700   11.03300  -21.01300
      C    C102     8.49400   10.93300  -20.69500
      N    N103     8.84600   11.02000  -19.40900
      C    C104     9.49900   10.73400  -21.68400
      C    C105     9.10600   10.65400  -22.95700
