# CIF file generated by openbabel 2.3.2, see http://openbabel.sf.net
data_I
_chemical_name_common '../proteins/pdb/2VKL.pdb'
_cell_length_a 62.269
_cell_length_b 62.269
_cell_length_c 37.483
_cell_angle_alpha 90
_cell_angle_beta 90
_cell_angle_gamma 90
_space_group_name_H-M_alt 'P 43 21 2'
_space_group_name_Hall 'P 4nw 2abw'
loop_
    _symmetry_equiv_pos_as_xyz
    'x,y,z'
    '-x,-y,1/2+z'
    '1/2-y,1/2+x,3/4+z'
    '1/2+y,1/2-x,1/4+z'
    '1/2-x,1/2+y,3/4-z'
    '1/2+x,1/2-y,1/4-z'
    'y,x,-z'
    '-y,-x,1/2-z'
loop_
    _atom_site_type_symbol
    _atom_site_label
    _atom_site_Cartn_x
    _atom_site_Cartn_y
    _atom_site_Cartn_z
      N    N1    -4.47400  -24.50300   18.92700
      C    C2    -3.06000  -24.67900   18.48000
      C    C3    -2.78300  -23.70600   17.32400
      O    O4    -3.58400  -23.54900   16.38100
      C    C5    -2.77800  -26.14000   18.07000
      C    C6    -1.83000  -26.38200   16.85700
      C    C7    -0.35900  -26.68800   17.24100
      O    O8     0.41200  -25.73600   17.57500
      O    O9     0.02500  -27.90100   17.17600
      N    N10    -1.63000  -23.06400   17.41800
      C    C11    -1.27500  -21.98100   16.54000
      C    C12    -1.18500  -22.48400   15.09700
      O    O13    -1.62600  -21.81100   14.14700
      C    C14     0.02900  -21.29100   17.05700
      C    C15     0.22100  -19.91600   16.43300
      C    C16     1.26500  -22.19500   16.86200
      C    C17     1.33100  -19.07500   17.10900
      N    N18    -0.66700  -23.68900   14.92300
      C    C19    -0.44800  -24.20600   13.58600
      C    C20    -1.81100  -24.56100   12.94600
      O    O21    -1.99700  -24.43000   11.72300
      C    C22     0.59500  -25.33600   13.60800
      C    C23     2.03200  -24.80000   13.82500
      O    O24     2.34300  -23.59500   13.53600
      O    O25     2.88200  -25.58300   14.28500
      N    N26    -2.77900  -24.94600   13.77700
      C    C27    -4.13300  -25.18100   13.30100
      C    C28    -4.78600  -23.86100   12.81600
      O    O29    -5.48900  -23.84700   11.79900
      C    C30    -5.05700  -25.81700   14.35900
      O    O31    -4.57300  -27.11800   14.70800
      C    C32    -6.44600  -25.96300   13.76300
      N    N33    -4.54200  -22.77700   13.54800
      C    C34    -4.97100  -21.43600   13.13200
      C    C35    -4.34300  -21.08700   11.75100
      O    O36    -4.99800  -20.48900   10.86400
      C    C37    -4.62000  -20.38200   14.18500
      C    C38    -5.39000  -20.40900   15.53200
      C    C39    -4.89200  -19.40700   16.59700
      C    C40    -6.86700  -20.18900   15.23800
      N    N41    -3.07700  -21.44700   11.57800
      C    C42    -2.36900  -21.13900   10.32500
      C    C43    -2.99200  -21.90800    9.16500
      O    O44    -3.17100  -21.36300    8.07100
      C    C45    -0.86800  -21.40100   10.45500
      C    C46    -0.14600  -20.32500   11.26800
      C    C47     1.31600  -20.62800   11.51100
      N    N48     1.98000  -19.43500   12.04200
      C    C49     2.72300  -19.38000   13.14100
      N    N50     2.95600  -20.46000   13.89400
      N    N51     3.22700  -18.20700   13.48400
      N    N52    -3.37300  -23.16500    9.41200
      C    C53    -4.05300  -23.94900    8.38700
      C    C54    -5.34600  -23.23700    7.94500
      O    O55    -5.65500  -23.15200    6.74900
      C    C56    -4.29700  -25.36400    8.92000
      C    C57    -2.95800  -26.09400    9.14000
      C    C58    -3.07300  -27.41300    9.86600
      O    O59    -4.17000  -27.81200   10.32500
      O    O60    -2.01500  -28.06700    9.94800
      N    N61    -6.06300  -22.64200    8.88900
      C    C62    -7.29000  -21.93100    8.55000
      C    C63    -6.98600  -20.65900    7.74300
      O    O64    -7.73800  -20.27400    6.83600
      C    C65    -8.04900  -21.55500    9.79100
      C    C66    -9.36700  -20.87900    9.51000
      C    C67   -10.43900  -21.82500    8.86800
      O    O68   -10.22200  -23.05600    8.60500
      O    O69   -11.52400  -21.28800    8.65200
      N    N70    -5.91000  -19.96500    8.10400
      C    C71    -5.51300  -18.77700    7.33300
      C    C72    -5.37900  -19.18700    5.87700
      O    O73    -5.82700  -18.49500    4.94700
      C    C74    -4.21600  -18.10800    7.83500
      C    C75    -4.41900  -17.40300    9.17700
      C    C76    -3.67600  -17.14500    6.77500
      C    C77    -5.22000  -16.14400    9.10500
      N    N78    -4.75700  -20.32400    5.66300
      C    C79    -4.46800  -20.75900    4.27700
      C    C80    -5.74900  -21.05600    3.53100
      O    O81    -5.86700  -20.77300    2.31900
      C    C82    -3.54300  -21.97000    4.26000
      C    C83    -2.11500  -21.62900    4.71100
      O    O84    -1.31700  -22.56800    4.94700
      O    O85    -1.77800  -20.44600    4.81200
      N    N86    -6.72500  -21.60900    4.24300
      C    C87    -8.04700  -21.86600    3.64300
      C    C88    -8.77900  -20.52500    3.33600
      O    O89    -9.32900  -20.31400    2.22900
      C    C90    -8.84400  -22.76600    4.57200
      C    C91    -8.20200  -24.13600    4.70700
      C    C92    -8.93100  -25.02600    5.71000
      N    N93    -8.06700  -26.15800    5.99800
      C    C94    -7.64200  -26.47400    7.21800
      N    N95    -8.04000  -25.78500    8.28200
      N    N96    -6.82200  -27.49400    7.36300
      N    N97    -8.72900  -19.59800    4.28100
      C    C98    -9.33100  -18.25500    4.06900
      C    C99    -8.68500  -17.57200    2.87000
      O    O100    -9.39400  -16.93300    2.04900
      C    C101    -9.19700  -17.37000    5.28700
      C    C102   -10.16100  -17.74500    6.41100
      C    C103    -9.66700  -17.10500    7.74800
      C    C104   -11.66500  -17.38000    6.08200
      N    N105    -7.36200  -17.69900    2.75700
      C    C106    -6.65800  -17.08700    1.60700
      C    C107    -7.13000  -17.71100    0.26500
      O    O108    -7.28900  -17.00400   -0.74600
      C    C109    -5.16300  -17.20800    1.76500
      C    C110    -4.60600  -16.16700    2.72900
      O    O111    -3.51600  -16.41800    3.29700
      O    O112    -5.25900  -15.08000    2.89200
      N    N113    -7.39400  -19.02400    0.25600
      C    C114    -7.95400  -19.63200   -0.95800
      C    C115    -9.28400  -18.95100   -1.40300
      O    O116    -9.49800  -18.68600   -2.59900
      C    C117    -8.18500  -21.15300   -0.79400
      N    N118   -10.17200  -18.72800   -0.44600
      C    C119   -11.50500  -18.12500   -0.67700
      C    C120   -11.31500  -16.67900   -1.11000
      O    O121   -11.93900  -16.21800   -2.05900
      C    C122   -12.38100  -18.08100    0.57800
      C    C123   -13.03200  -19.29300    1.02700
      C    C124   -14.00900  -19.85400   -0.01800
      O    O125   -15.22500  -19.45500   -0.12400
      O    O126   -13.53600  -20.71300   -0.72500
      N    N127   -10.46700  -15.96200   -0.38800
      C    C128   -10.23200  -14.54800   -0.68100
      C    C129    -9.65300  -14.39700   -2.07100
      O    O130   -10.14500  -13.59200   -2.87200
      C    C131    -9.31900  -13.87700    0.40000
      C    C132   -10.04500  -13.77900    1.75000
      C    C133    -8.91500  -12.49200   -0.02800
      C    C134    -9.10800  -13.50500    2.97400
      N    N135    -8.60100  -15.16600   -2.38400
      C    C136    -8.00600  -15.13200   -3.72800
      C    C137    -9.04300  -15.37300   -4.84200
      O    O138    -9.06600  -14.65300   -5.85600
      C    C139    -6.86700  -16.14500   -3.81500
      C    C140    -6.06400  -16.17400   -5.09800
      C    C141    -5.47100  -14.78400   -5.35600
      C    C142    -4.98900  -17.26800   -5.02200
      N    N143    -9.87600  -16.41500   -4.66600
      C    C144   -10.92200  -16.72400   -5.66100
      C    C145   -11.80200  -15.46100   -5.89400
      O    O146   -12.05900  -15.04900   -7.02200
      C    C147   -11.76100  -17.91900   -5.23100
      N    N148   -12.20400  -14.83100   -4.79700
      C    C149   -13.11700  -13.67500   -4.87600
      C    C150   -12.43400  -12.46100   -5.49700
      O    O151   -13.04600  -11.72700   -6.28100
      C    C152   -13.67700  -13.31000   -3.51100
      C    C153   -14.69100  -14.32700   -2.99000
      C    C154   -14.87600  -14.16200   -1.47500
      C    C155   -16.01500  -14.19900   -3.79000
      N    N156   -11.17700  -12.22400   -5.09700
      C    C157   -10.40200  -11.07200   -5.59000
      C    C158   -10.16600  -11.19800   -7.09100
      O    O159   -10.29000  -10.20800   -7.80500
      C    C160    -9.12000  -10.81600   -4.79800
      C    C161    -8.26600   -9.71800   -5.45000
      C    C162    -9.49800  -10.47700   -3.32700
      N    N163    -9.89700  -12.41400   -7.55000
      C    C164    -9.75200  -12.66900   -8.97600
      C    C165   -11.03700  -12.30300   -9.72200
      O    O166   -10.99600  -11.60700  -10.77400
      C    C167    -9.38300  -14.10600   -9.22100
      C    C168    -7.94300  -14.43900   -8.81900
      C    C169    -7.71600  -15.95900   -9.04000
      C    C170    -6.32800  -16.35500   -8.74500
      N    N171    -6.19800  -17.87500   -8.95000
      N    N172   -12.16700  -12.75800   -9.19300
      C    C173   -13.46100  -12.45700   -9.81000
      C    C174   -13.67300  -10.94000   -9.78600
      O    O175   -14.10400  -10.33300  -10.78700
      C    C176   -14.60100  -13.12800   -9.07700
      C    C177   -15.96700  -12.88200   -9.77700
      C    C178   -16.12900  -13.73100  -11.01400
      N    N179   -16.73200  -13.08000  -12.17700
      C    C180   -16.26100  -13.17200  -13.43100
      N    N181   -16.90500  -12.54700  -14.40500
      N    N182   -15.15100  -13.87400  -13.73600
      N    N183   -13.43200  -10.32600   -8.62200
      C    C184   -13.60800   -8.86500   -8.52000
      C    C185   -12.73500   -8.10700   -9.58400
      O    O186   -13.19300   -7.15600  -10.22000
      C    C187   -13.23500   -8.35600   -7.13700
      C    C188   -13.80800   -6.93400   -6.86900
      C    C189   -13.05400   -6.26900   -5.70600
      N    N190   -13.73300   -5.09000   -5.21000
      C    C191   -13.68000   -3.91300   -5.79700
      N    N192   -12.99400   -3.76100   -6.92700
      N    N193   -14.37200   -2.89300   -5.29300
      N    N194   -11.48600   -8.51500   -9.74800
      C    C195   -10.55400   -7.87900  -10.67400
      C    C196   -11.11700   -7.98400  -12.11200
      O    O197   -11.08400   -6.99800  -12.86000
      C    C198    -9.19000   -8.51900  -10.57500
      N    N199   -11.66900   -9.15200  -12.44700
      C    C200   -12.29500   -9.37400  -13.77000
      C    C201   -13.49500   -8.46300  -13.99700
      O    O202   -13.63600   -7.85200  -15.09100
      C    C203   -12.65800  -10.84000  -13.94600
      C    C204   -11.42400  -11.71400  -14.02700
      C    C205   -10.44200  -11.28900  -15.14600
      O    O206   -10.91300  -11.02000  -16.27700
      O    O207    -9.19700  -11.21900  -14.90500
      N    N208   -14.33700   -8.33800  -12.98300
      C    C209   -15.53300   -7.47700  -13.09700
      C    C210   -15.09500   -6.00200  -13.20200
      O    O211   -15.58800   -5.25200  -14.04500
      C    C212   -16.50300   -7.65400  -11.94900
      C    C213   -17.68700   -6.64300  -12.06800
      C    C214   -16.99200   -9.13400  -11.88900
      N    N215   -14.15100   -5.61800  -12.34800
      C    C216   -13.56200   -4.27000  -12.35900
      C    C217   -12.96400   -3.90100  -13.72800
      O    O218   -13.19000   -2.79700  -14.22200
      C    C219   -12.47800   -4.15000  -11.29200
      O    O220   -13.05700   -4.20700  -10.02800
      N    N221   -12.21500   -4.83200  -14.30700
      C    C222   -11.57500   -4.60400  -15.61700
      C    C223   -12.64300   -4.39300  -16.68900
      O    O224   -12.48800   -3.51900  -17.55900
      C    C225   -10.63900   -5.76300  -15.94900
      C    C226    -9.33100   -5.69900  -15.19200
      C    C227    -8.53900   -6.97700  -15.38200
      C    C228    -7.31300   -6.93700  -14.59100
      N    N229    -6.50600   -8.13400  -14.91900
      N    N230   -13.72600   -5.15700  -16.61000
      C    C231   -14.83900   -5.07800  -17.55700
      C    C232   -15.53400   -3.71600  -17.44500
      O    O233   -15.92100   -3.11500  -18.43600
      C    C234   -15.85100   -6.17100  -17.31400
      N    N235   -15.72300   -3.25500  -16.21000
      C    C236   -16.25900   -1.91300  -16.00600
      C    C237   -15.35700   -0.84800  -16.62300
      O    O238   -15.83600    0.06600  -17.31100
      C    C239   -16.42500   -1.59800  -14.50100
      C    C240   -17.55000   -2.47400  -13.93800
      C    C241   -16.70900   -0.09800  -14.32500
      C    C242   -17.54900   -2.55100  -12.43300
      N    N243   -14.06700   -0.94400  -16.35200
      C    C244   -13.07000    0.00100  -16.85200
      C    C245   -13.12200    0.09100  -18.36700
      O    O246   -13.18100    1.20500  -18.93200
      N    N247   -13.14400   -1.07400  -19.02600
      C    C248   -13.20100   -1.12300  -20.49100
      C    C249   -14.48900   -0.49400  -21.04200
      O    O250   -14.42400    0.33000  -21.99100
      C    C251   -13.00500   -2.56000  -21.00400
      C    C252   -11.56000   -3.02100  -20.80400
      C    C253   -11.39200   -4.53000  -20.90200
      C    C254    -9.97300   -4.92200  -20.53700
      N    N255    -9.84100   -6.35900  -20.11800
      N    N256   -15.62900   -0.86800  -20.46400
      C    C257   -16.93400   -0.37300  -20.89300
      C    C258   -16.99600    1.13300  -20.74800
      O    O259   -17.56200    1.81500  -21.60700
      C    C260   -18.04300   -1.00500  -20.09800
      N    N261   -16.42200    1.63000  -19.64500
      C    C262   -16.42900    3.06100  -19.33500
      C    C263   -15.59200    3.82800  -20.35400
      O    O264   -16.02900    4.82600  -20.93500
      C    C265   -15.89600    3.28500  -17.90600
      C    C266   -15.98500    4.72600  -17.43400
      C    C267   -15.62100    4.87800  -15.95200
      N    N268   -14.24100    4.51300  -15.63500
      C    C269   -13.17300    5.23300  -15.97300
      N    N270   -13.28600    6.34700  -16.70200
      N    N271   -11.96600    4.82000  -15.61300
      N    N272   -14.38000    3.35100  -20.57800
      C    C273   -13.49700    3.95500  -21.56600
      C    C274   -14.05300    3.80500  -23.00400
      O    O275   -13.93200    4.74400  -23.79800
      C    C276   -12.05800    3.45400  -21.36700
      C    C277   -11.43000    4.06700  -20.08600
      S    S278    -9.91800    3.35900  -19.37400
      C    C279    -9.07800    4.83100  -18.76900
      N    N280   -14.75000    2.70700  -23.30800
      C    C281   -15.44500    2.55300  -24.61800
      C    C282   -16.57800    3.58800  -24.83800
      O    O283   -16.91200    3.91600  -25.98400
      C    C284   -16.00100    1.14800  -24.76800
      N    N285   -17.16000    4.08000  -23.74000
      C    C286   -18.23000    5.06200  -23.78100
      C    C287   -17.70100    6.48400  -23.57200
      O    O288   -18.46100    7.42800  -23.70600
      C    C289   -19.25600    4.77000  -22.68300
      O    O290   -20.12100    3.70100  -23.01700
      N    N291   -16.42700    6.65000  -23.23500
      C    C292   -15.93500    7.94600  -22.74900
      C    C293   -16.60200    8.37500  -21.43400
      O    O294   -16.80700    9.57700  -21.15700
      N    N295   -16.91500    7.38800  -20.60800
      C    C296   -17.56000    7.60900  -19.33200
      C    C297   -16.62000    8.16000  -18.26000
      O    O298   -15.39500    7.87100  -18.21400
      N    N299   -17.19200    8.96000  -17.37800
      C    C300   -16.40600    9.62400  -16.37900
      C    C301   -16.09700    8.67200  -15.22400
      O    O302   -16.95800    7.90600  -14.77200
      C    C303   -17.11900   10.91100  -15.92400
      O    O304   -17.20200   11.81200  -17.05500
      C    C305   -16.35900   11.56600  -14.75900
      N    N306   -14.86400    8.72300  -14.74000
      C    C307   -14.47500    7.90600  -13.61000
      C    C308   -15.16500    8.39700  -12.35700
      O    O309   -15.14600    9.58800  -12.08600
      C    C310   -12.96500    7.94600  -13.40800
      C    C311   -12.51200    6.98100  -12.33800
      C    C312   -10.99900    6.96700  -12.24500
      N    N313   -10.56000    6.37600  -11.00000
      C    C314    -9.31900    6.40600  -10.53300
      N    N315    -8.35900    7.01400  -11.21900
      N    N316    -9.04700    5.83500   -9.37300
      N    N317   -15.72400    7.48000  -11.58100
      C    C318   -16.47900    7.82600  -10.39100
      C    C319   -15.64600    7.83900   -9.09700
      O    O320   -15.92500    7.09700   -8.14600
      C    C321   -17.72000    6.93600  -10.27400
      C    C322   -18.67200    6.93900  -11.47300
      C    C323   -19.89100    6.05900  -11.18600
      C    C324   -19.05400    8.36900  -11.82800
      N    N325   -14.60400    8.66700   -9.08300
      C    C326   -13.68600    8.72500   -7.94800
      C    C327   -14.35600    9.27000   -6.69100
      O    O328   -14.29500    8.65300   -5.63500
      C    C329   -12.42900    9.54800   -8.27000
      C    C330   -11.64500    9.86900   -6.97600
      C    C331   -11.56000    8.78400   -9.31200
      N    N332   -14.61900    8.68500   -9.07800
      C    C333   -13.67000    8.73100   -7.96600
      C    C334   -14.23900    9.35000   -6.68400
      O    O335   -13.94700    8.89400   -5.59100
      C    C336   -12.37300    9.46900   -8.36400
      C    C337   -12.66100   10.92400   -8.75800
      C    C338   -11.32500    9.34400   -7.24900
      N    N339   -15.02400   10.41300   -6.81300
      C    C340   -15.53600   11.10800   -5.63800
      C    C341   -16.76400   10.48800   -5.01200
      O    O342   -17.08200   10.75400   -3.83300
      C    C343   -15.78100   12.58200   -5.99400
      C    C344   -14.53600   13.28900   -6.44600
      N    N345   -13.42500   13.41900   -5.63400
      C    C346   -14.23300   13.92200   -7.60800
      C    C347   -12.48500   14.08700   -6.28300
      N    N348   -12.94200   14.40400   -7.48600
      N    N349   -17.46600    9.70500   -5.81000
      C    C350   -18.72800    9.10800   -5.39300
      C    C351   -18.47800    7.63100   -5.14200
      O    O352   -18.07200    7.22400   -4.01000
      C    C353   -19.83500    9.43300   -6.42000
      O    O354   -19.66300    8.89100   -7.71100
      N    N355   -18.56100    6.84800   -6.20900
      C    C356   -18.51400    5.38200   -6.02900
      C    C357   -17.20200    4.86000   -5.41300
      O    O358   -17.21600    4.07400   -4.46000
      C    C359   -18.78900    4.70200   -7.33900
      C    C360   -18.73900    3.24600   -7.18100
      C    C361   -19.50800    2.56500   -8.22500
      N    N362   -19.10600    1.19100   -8.12400
      C    C363   -19.63600    0.31800   -7.28600
      N    N364   -19.13300   -0.89600   -7.24400
      N    N365   -20.70000    0.64100   -6.56900
      N    N366   -16.06200    5.27400   -5.94700
      C    C367   -14.78200    4.76100   -5.39200
      C    C368   -14.61900    5.15300   -3.90900
      O    O369   -14.17600    4.35000   -3.07700
      C    C370   -13.59800    5.19000   -6.24100
      C    C371   -13.71900    4.66400   -7.69300
      C    C372   -12.47800    4.91000   -8.51600
      O    O373   -11.42500    5.28800   -7.95700
      O    O374   -12.57100    4.78800   -9.75600
      N    N375   -15.04300    6.36900   -3.58000
      C    C376   -15.03100    6.82600   -2.21500
      C    C377   -15.92700    5.93700   -1.34100
      O    O378   -15.56700    5.61700   -0.20900
      C    C379   -15.48700    8.30200   -2.13900
      C    C380   -15.16400    8.92800   -0.86600
      S    S381   -13.39600    9.08100   -0.58400
      C    C382   -12.71800    9.18500   -2.24800
      N    N383   -17.09200    5.55900   -1.85200
      C    C384   -18.00800    4.65400   -1.14700
      C    C385   -17.36000    3.25500   -0.90600
      O    O386   -17.54500    2.64600    0.16700
      C    C387   -19.35900    4.52700   -1.90200
      C    C388   -19.62100    3.25600   -2.77200
      C    C389   -21.07100    2.63900   -2.63800
      C    C390   -20.99900    1.11000   -2.80100
      N    N391   -22.23300    0.28100   -2.42000
      N    N392   -16.62400    2.75800   -1.89400
      C    C393   -15.89600    1.44500   -1.71900
      C    C394   -14.86100    1.59200   -0.59600
      O    O395   -14.78500    0.75100    0.28200
      C    C396   -15.22500    0.99900   -3.01000
      C    C397   -14.28500   -0.22400   -2.81200
      C    C398   -16.33500    0.74200   -4.13300
      N    N399   -14.07600    2.67300   -0.63900
      C    C400   -13.12300    2.97600    0.40400
      C    C401   -13.79200    3.07300    1.78700
      O    O402   -13.29800    2.50400    2.73500
      C    C403   -12.28700    4.21600    0.06500
      C    C404   -11.43200    3.95400   -1.17500
      C    C405   -11.42100    4.63700    1.24700
      C    C406   -10.70000    5.20400   -1.72000
      N    N407   -14.94400    3.73700    1.86000
      C    C408   -15.66400    3.92600    3.11900
      C    C409   -16.12700    2.59400    3.65500
      O    O410   -16.04100    2.35200    4.86000
      C    C411   -16.86000    4.86500    2.95100
      C    C412   -16.41500    6.31300    2.81700
      C    C413   -17.51600    7.26200    2.32200
      O    O414   -18.63800    6.79400    1.97600
      O    O415   -17.22300    8.48600    2.25600
      N    N416   -16.53100    1.71400    2.76400
      C    C417   -17.03600    0.43000    3.14900
      C    C418   -15.94500   -0.39000    3.87500
      O    O419   -16.15800   -0.90800    4.96100
      C    C420   -17.48300   -0.30400    1.92600
      C    C421   -18.02600   -1.56200    2.21600
      C    C422   -18.91100   -1.94400    1.10100
      N    N423   -19.72800   -3.05900    1.50800
      C    C424   -20.37200   -3.83100    0.65400
      N    N425   -20.27800   -3.60900   -0.65200
      N    N426   -21.08400   -4.83400    1.12700
      N    N427   -14.77200   -0.44000    3.29100
      C    C428   -13.67500   -1.20100    3.85200
      C    C429   -13.05400   -0.50100    5.07000
      O    O430   -12.37700   -1.13100    5.85200
      C    C431   -12.60600   -1.46400    2.80700
      C    C432   -12.96100   -2.60100    1.87600
      C    C433   -12.64100   -3.90300    2.22100
      C    C434   -13.61300   -2.38800    0.65500
      C    C435   -12.94500   -5.00300    1.39800
      C    C436   -13.90900   -3.47600   -0.19800
      C    C437   -13.57200   -4.79500    0.18100
      O    O438   -13.87700   -5.89200   -0.64800
      N    N439   -13.30400    0.80700    5.17900
      C    C440   -12.83900    1.61900    6.32900
      C    C441   -13.28700    1.02200    7.65900
      O    O442   -12.64900    1.24900    8.69500
      C    C443   -13.34900    3.05800    6.21800
      O    O444   -14.63700    3.16000    6.78600
      N    N445   -13.28600    0.80100    5.20400
      C    C446   -12.74100    1.54800    6.35700
      C    C447   -13.34200    1.09200    7.69100
      O    O448   -12.86700    1.48500    8.76000
      C    C449   -12.90200    3.05500    6.15300
      O    O450   -12.15000    3.48900    5.03300
      N    N451   -14.37500    0.26200    7.63300
      C    C452   -14.80000   -0.56500    8.77900
      C    C453   -13.61200   -1.28400    9.47000
      O    O454   -13.59700   -1.46200   10.68800
      C    C455   -15.81900   -1.60000    8.28400
      C    C456   -16.14100   -2.71900    9.26200
      C    C457   -17.54500   -3.29200    9.11500
      O    O458   -18.08400   -3.41700    7.99800
      O    O459   -18.14700   -3.61800   10.15500
      N    N460   -12.61600   -1.69500    8.69200
      C    C461   -11.44900   -2.40400    9.19300
      C    C462   -10.33600   -1.50800    9.72800
      O    O463    -9.23100   -2.00900   10.02000
      C    C464   -10.84200   -3.23800    8.05600
      C    C465   -11.69100   -4.26900    7.32300
      C    C466   -10.97200   -4.75400    6.08700
      C    C467   -11.98700   -5.39000    8.26100
      N    N468   -10.59900   -0.20900    9.78900
      C    C469    -9.59200    0.78000   10.09800
      C    C470    -8.78700    1.25900    8.91100
      O    O471    -9.11100    0.98800    7.73200
      N    N472    -7.70200    1.98900    9.19800
      C    C473    -6.89000    2.55600    8.13500
      C    C474    -6.39200    1.53900    7.13300
      O    O475    -6.29800    1.85900    5.97200
      C    C476    -5.67900    3.11300    8.89800
      C    C477    -6.12100    3.30900   10.21500
      C    C478    -7.16600    2.31800   10.53200
      N    N479    -6.08300    0.31700    7.57300
      C    C480    -5.60100   -0.68900    6.63900
      C    C481    -6.72600   -1.12600    5.68100
      O    O482    -6.42700   -1.55500    4.54700
      C    C483    -4.97800   -1.88700    7.33500
      C    C484    -3.59700   -1.55400    7.94100
      O    O485    -3.19700   -2.25200    8.87800
      O    O486    -2.92300   -0.58200    7.48600
      N    N487    -7.98300   -0.98400    6.11900
      C    C488    -9.14200   -1.25200    5.22100
      C    C489    -9.22200   -0.26700    4.05900
      O    O490    -9.56300   -0.62900    2.91400
      N    N491    -8.89500    0.99200    4.32100
      C    C492    -8.79800    1.99600    3.26100
      C    C493    -7.75700    1.56200    2.22800
      O    O494    -8.00200    1.57200    0.99100
      C    C495    -8.43600    3.38600    3.84300
      C    C496    -8.08200    4.43600    2.80600
      C    C497    -7.75500    5.83300    3.40700
      C    C498    -7.38500    6.80600    2.28800
      N    N499    -7.93100    8.17900    2.51600
      N    N500    -6.58700    1.12900    2.70100
      C    C501    -5.55900    0.67600    1.78000
      C    C502    -6.03100   -0.55900    0.98800
      O    O503    -5.76100   -0.67600   -0.20400
      C    C504    -4.27600    0.32000    2.51900
      C    C505    -3.46700    1.54500    2.91600
      O    O506    -4.02400    2.64800    2.88300
      O    O507    -2.25200    1.41200    3.19400
      N    N508    -6.74100   -1.46700    1.67200
      C    C509    -7.27700   -2.67200    0.98000
      C    C510    -8.19300   -2.24000   -0.18600
      O    O511    -8.05400   -2.69100   -1.34100
      C    C512    -8.06100   -3.55700    1.95100
      C    C513    -8.72100   -4.80000    1.37300
      C    C514    -7.75900   -5.60400    0.50900
      C    C515    -9.32600   -5.61000    2.52300
      N    N516    -9.14100   -1.35300    0.10700
      C    C517   -10.02200   -0.81300   -0.95900
      C    C518    -9.22400   -0.22300   -2.15900
      O    O519    -9.50500   -0.47200   -3.32200
      C    C520   -10.94400    0.26100   -0.40300
      N    N521    -8.23100    0.59200   -1.84000
      C    C522    -7.38300    1.21200   -2.84500
      C    C523    -6.73600    0.14300   -3.72800
      O    O524    -6.76700    0.23500   -4.94300
      C    C525    -6.36200    2.12800   -2.17100
      C    C526    -7.09700    3.34500   -1.54300
      C    C527    -5.25700    2.52900   -3.16700
      C    C528    -6.28400    4.15700   -0.51200
      N    N529    -6.21300   -0.90000   -3.08200
      C    C530    -5.57000   -1.99200   -3.80900
      C    C531    -6.59000   -2.70600   -4.70900
      O    O532    -6.31200   -3.01500   -5.85500
      C    C533    -4.92700   -2.96300   -2.82400
      C    C534    -4.07700   -4.03600   -3.43900
      C    C535    -4.95900   -5.11600   -4.04300
      C    C536    -3.08600   -3.42800   -4.45000
      N    N537    -7.78300   -2.98000   -4.17800
      C    C538    -8.82700   -3.66800   -4.99700
      C    C539    -9.19900   -2.80600   -6.19500
      O    O540    -9.35900   -3.30400   -7.29000
      C    C541   -10.06500   -4.02000   -4.17300
      C    C542    -9.80500   -5.04900   -3.04400
      C    C543   -11.08900   -5.20700   -2.21100
      C    C544    -9.31200   -6.39300   -3.60200
      N    N545    -9.31000   -1.49300   -5.99000
      C    C546    -9.57700   -0.60700   -7.13500
      C    C547    -8.43800   -0.69300   -8.14900
      O    O548    -8.68900   -0.74400   -9.35600
      C    C549    -9.80000    0.81400   -6.64800
      C    C550   -11.10000    0.99500   -5.84300
      C    C551   -11.05900    2.24700   -4.92200
      C    C552   -12.36300    1.01600   -6.73000
      N    N553    -7.19500   -0.70500   -7.66100
      C    C554    -5.98800   -0.78400   -8.51500
      C    C555    -5.96800   -2.05100   -9.36200
      O    O556    -5.60900   -2.02400  -10.55900
      C    C557    -4.71600   -0.75300   -7.68700
      C    C558    -4.39600    0.60300   -7.14700
      C    C559    -3.19700    0.57200   -6.27800
      N    N560    -2.94200    1.88600   -5.68000
      C    C561    -1.78400    2.23300   -5.11500
      N    N562    -0.78700    1.35600   -5.05500
      N    N563    -1.63400    3.45900   -4.62000
      N    N564    -6.38100   -3.15700   -8.74200
      C    C565    -6.44200   -4.46100   -9.45700
      C    C566    -7.36200   -4.36400  -10.66300
      O    O567    -7.17500   -5.07100  -11.66100
      C    C568    -6.86100   -5.59000   -8.50800
      C    C569    -5.79200   -6.15000   -7.57000
      C    C570    -6.46100   -7.01700   -6.37600
      C    C571    -4.77300   -6.99700   -8.36000
      N    N572    -8.34000   -3.47700  -10.60500
      C    C573    -9.25400   -3.27800  -11.71500
      C    C574    -8.72500   -2.46200  -12.87800
      O    O575    -9.34300   -2.44200  -13.94700
      N    N576    -7.59000   -1.79300  -12.70100
      C    C577    -7.18600   -0.73800  -13.62900
      C    C578    -6.09900   -1.09700  -14.63700
      O    O579    -5.72200   -0.25700  -15.47000
      C    C580    -6.81600    0.52600  -12.84400
      C    C581    -8.07400    1.26500  -12.35500
      C    C582    -7.84600    2.74500  -12.10600
      N    N583    -6.85300    2.97500  -11.06200
      C    C584    -7.08500    2.94300   -9.73400
      N    N585    -8.27100    2.65900   -9.25500
      N    N586    -6.10500    3.19500   -8.87100
      N    N587    -5.60400   -2.31800  -14.60500
      C    C588    -4.70200   -2.71300  -15.67600
      C    C589    -3.24800   -2.41400  -15.34200
      O    O590    -2.92500   -1.52500  -14.52900
      N    N591    -2.40300   -3.23900  -15.93500
      C    C592    -0.95400   -3.13900  -15.86600
      C    C593    -0.41800   -3.65900  -17.19900
      O    O594    -1.10800   -4.40100  -17.91500
      C    C595    -0.39000   -4.01400  -14.75000
      C    C596    -0.80300   -3.60000  -13.35300
      C    C597     0.05100   -4.29700  -12.32900
      N    N598     1.41200   -3.81000  -12.39200
      C    C599     1.83900   -2.67300  -11.83800
      N    N600     1.01000   -1.91000  -11.14500
      N    N601     3.11400   -2.30400  -11.99100
      N    N602     0.83300   -3.32400  -17.50800
      C    C603     1.38700   -3.66100  -18.80600
      C    C604     2.19500   -4.95200  -18.84300
      O    O605     2.85000   -5.30300  -17.88700
      C    C606     2.25600   -2.51800  -19.30700
      C    C607     1.53300   -1.19700  -19.44500
      C    C608     2.41900   -0.15300  -20.08800
      C    C609     0.21200   -1.36100  -20.23100
      N    N610     2.11700   -5.61400  -19.99300
      C    C611     2.90400   -6.80500  -20.32000
      C    C612     3.81200   -6.54800  -21.52000
      O    O613     4.77400   -7.31000  -21.73600
