# CIF file generated by openbabel 2.3.2, see http://openbabel.sf.net
data_I
_chemical_name_common '../proteins/pdb/2YIZ.pdb'
_cell_length_a 94.302
_cell_length_b 94.302
_cell_length_c 230.907
_cell_angle_alpha 90
_cell_angle_beta 90
_cell_angle_gamma 120
loop_
    _atom_site_type_symbol
    _atom_site_label
    _atom_site_Cartn_x
    _atom_site_Cartn_y
    _atom_site_Cartn_z
      N    N1    20.92100    2.91800   29.42100
      C    C2    20.05000    1.71200   29.57200
      C    C3    19.05300    1.89700   30.71200
      O    O4    19.07800    2.91600   31.41800
      C    C5    20.91800    0.46200   29.81200
      O    O6    21.43400    0.42000   31.14500
      N    N7    18.17800    0.91100   30.90400
      C    C8    17.27100    0.90800   32.06200
      C    C9    17.84300    0.07900   33.20300
      O    O10    17.90900   -1.14400   33.11800
      C    C11    15.91300    0.33200   31.69600
      C    C12    15.19700    1.14400   30.64800
      O    O13    14.66700    0.59200   29.69300
      N    N14    15.18400    2.45600   30.81600
      N    N15    18.23700    0.74400   34.27500
      C    C16    18.92600    0.06300   35.36500
      C    C17    17.94000   -0.74100   36.21000
      O    O18    16.77000   -0.39700   36.27100
      C    C19    19.60600    1.08700   36.26300
      C    C20    20.62200    1.93300   35.56500
      N    N21    21.20500    1.56300   34.37500
      C    C22    21.17800    3.11800   35.90900
      C    C23    22.07400    2.48800   34.01100
      N    N24    22.07300    3.44600   34.92200
      N    N25    18.44200   -1.80000   36.84700
      C    C26    17.69200   -2.58900   37.81600
      C    C27    18.44200   -2.48100   39.13200
      O    O28    19.67200   -2.49000   39.13800
      C    C29    17.60300   -4.06400   37.40300
      O    O30    17.00700   -4.16100   36.09000
      C    C31    16.82900   -4.87500   38.42000
      N    N32    17.71000   -2.34500   40.23200
      C    C33    18.30700   -2.21800   41.56000
      C    C34    17.90800   -3.41200   42.40800
      O    O35    16.88500   -4.07500   42.14600
      C    C36    17.88900   -0.92500   42.24800
      C    C37    18.16000    0.29000   41.40000
      C    C38    17.30000    0.63100   40.36100
      C    C39    19.29500    1.05600   41.59300
      C    C40    17.55300    1.71400   39.54500
      C    C41    19.55000    2.15000   40.76600
      C    C42    18.66300    2.46700   39.75000
      O    O43    18.89600    3.56100   38.91100
      N    N44    18.75800   -3.71300   43.38300
      C    C45    18.46800   -4.72500   44.39400
      C    C46    18.41000   -4.01300   45.74000
      O    O47    19.18100   -3.09400   45.99800
      C    C48    19.53900   -5.81400   44.39200
      C    C49    19.42400   -6.82000   45.52900
      C    C50    18.77100   -8.10800   45.17200
      N    N51    18.82100   -9.01900   46.32100
      C    C52    19.69300  -10.00000   46.51200
      N    N53    20.60500  -10.32100   45.57800
      N    N54    19.63100  -10.72500   47.63500
      N    N55    17.49500   -4.44800   46.59300
      C    C56    17.29100   -3.81800   47.91200
      C    C57    17.43900   -4.88600   48.98500
      O    O58    16.68900   -5.87000   48.99200
      C    C59    15.90000   -3.18800   48.02700
      C    C60    15.78000   -2.42500   49.35700
      C    C61    15.63400   -2.26100   46.85800
      N    N62    18.43300   -4.71600   49.86000
      C    C63    18.67000   -5.66200   50.93300
      C    C64    18.32500   -4.96700   52.24100
      O    O65    18.07500   -3.75200   52.26500
      C    C66    20.11500   -6.21200   50.95800
      C    C67    21.10800   -5.08300   51.17400
      C    C68    20.39300   -6.98100   49.64300
      C    C69    22.50500   -5.56300   51.56200
      N    N70    18.25300   -5.74300   53.30400
      C    C71    17.91900   -5.21000   54.63300
      C    C72    19.05100   -5.54400   55.61800
      O    O73    19.48100   -6.68900   55.71100
      C    C74    16.57500   -5.76200   55.09600
      C    C75    15.98600   -5.16300   56.34100
      C    C76    14.54900   -5.63500   56.57500
      O    O77    13.84300   -5.94000   55.58800
      O    O78    14.13200   -5.73600   57.72800
      N    N79    19.51600   -4.51300   56.30300
      C    C80    20.56200   -4.66300   57.29800
      C    C81    20.18900   -3.95000   58.59400
      O    O82    19.28800   -3.11500   58.63000
      C    C83    21.89300   -4.11400   56.78900
      C    C84    21.81600   -2.62100   56.52500
      C    C85    22.38200   -4.85600   55.52200
      C    C86    23.18300   -1.98700   56.28000
      N    N87    20.87300   -4.30300   59.68800
      C    C88    20.67800   -3.57600   60.92900
      C    C89    22.04500   -3.06100   61.37700
      O    O90    22.94600   -3.86100   61.60400
      C    C91    20.09900   -4.47100   62.04700
      C    C92    19.74200   -3.61000   63.25900
      C    C93    18.85700   -5.25500   61.55400
      N    N94    22.19500   -1.73800   61.47200
      C    C95    23.38800   -1.13300   62.05000
      C    C96    23.20700   -0.90600   63.52800
      O    O97    22.08900   -0.64000   63.99000
      N    N98    24.29700   -1.01900   64.29000
      C    C99    24.20400   -0.81300   65.73100
      C    C100    25.31200    0.08200   66.25300
      O    O101    26.40000    0.18600   65.66400
      C    C102    24.24200   -2.15700   66.54500
      O    O103    25.55800   -2.72100   66.53300
      C    C104    23.23000   -3.16200   65.98900
      N    N105    25.00500    0.74600   67.35500
      C    C106    25.99100    1.58200   68.05900
      C    C107    25.42400    1.98900   69.39500
      O    O108    24.23400    2.28300   69.50400
      C    C109    26.25700    2.87000   67.28100
      O    O110    27.15600    3.73000   67.99800
      N    N111    26.27700    2.10000   70.41900
      C    C112    25.77500    2.67400   71.65200
      C    C113    25.56000    4.18000   71.57100
      O    O114    24.88600    4.72800   72.44200
      C    C115    26.88300    2.38700   72.67700
      C    C116    27.97200    1.76900   71.96400
      C    C117    27.66700    1.64400   70.52300
      N    N118    26.10000    4.80100   70.51700
      C    C119    26.19200    6.26400   70.40500
      C    C120    25.10500    6.94400   69.59200
      O    O121    25.27600    8.10800   69.20300
      C    C122    27.55000    6.64500   69.79200
      C    C123    28.72500    6.08600   70.56300
      O    O124    28.58400    5.80000   71.77100
      O    O125    29.80200    5.93900   69.95100
      N    N126    26.11400    4.86100   70.57300
      C    C127    26.10500    6.33200   70.57700
      C    C128    24.77500    6.95600   70.17400
      O    O129    24.38900    8.01000   70.68200
      C    C130    27.22700    6.85900   69.68700
      C    C131    28.59700    6.62700   70.29200
      O    O132    28.66700    6.24100   71.47900
      O    O133    29.60200    6.83300   69.58500
      N    N134    24.01900    6.22400   69.30600
      C    C135    22.79900    6.83800   68.82000
      C    C136    22.38200    6.39900   67.43700
      O    O137    23.02000    5.55300   66.80400
      N    N138    24.07300    6.31300   69.25000
      C    C139    22.80000    6.84300   68.81800
      C    C140    22.37100    6.38700   67.44600
      O    O141    22.98400    5.50600   66.84000
      N    N142    21.31200    7.02200   66.95500
      C    C143    20.69400    6.65600   65.68700
      C    C144    21.63200    6.89900   64.48600
      O    O145    21.82900    5.99600   63.66900
      C    C146    19.36300    7.43800   65.51300
      C    C147    18.78700    7.27500   64.12400
      C    C148    18.32600    7.01600   66.58700
      N    N149    22.19800    8.10900   64.39600
      C    C150    23.12800    8.43500   63.31400
      C    C151    24.32600    7.46100   63.29800
      O    O152    24.72500    6.98300   62.24700
      C    C153    23.66400    9.86700   63.42700
      C    C154    22.63600   10.94900   63.12800
      O    O155    21.59700   10.67600   62.50100
      O    O156    22.90700   12.11500   63.52400
      N    N157    24.89400    7.17500   64.46400
      C    C158    26.06100    6.29000   64.55400
      C    C159    25.72300    4.86700   64.10800
      O    O160    26.53100    4.21200   63.45300
      C    C161    26.63300    6.29400   65.98600
      N    N162    24.52300    4.40800   64.45500
      C    C163    24.04900    3.08100   64.04400
      C    C164    23.84900    2.99100   62.53600
      O    O165    24.25600    2.01000   61.88800
      C    C166    22.76000    2.71700   64.80400
      N    N167    23.25300    4.03700   61.96300
      C    C168    23.07600    4.13500   60.52200
      C    C169    24.42000    4.08600   59.82900
      O    O170    24.65400    3.26100   58.93800
      C    C171    22.30600    5.41200   60.15200
      C    C172    20.83200    5.25000   60.56500
      C    C173    22.44200    5.71000   58.65100
      C    C174    20.01000    6.51400   60.48000
      N    N175    25.32000    4.94600   60.28000
      C    C176    26.63200    5.06000   59.65400
      C    C177    27.40700    3.74600   59.78300
      O    O178    28.06200    3.30900   58.83300
      C    C179    27.42300    6.20400   60.27200
      C    C180    26.84900    7.60000   60.04000
      C    C181    27.19100    8.18500   58.68700
      O    O182    27.57100    7.46400   57.74700
      N    N183    27.05500    9.50800   58.57500
      N    N184    27.30500    3.09800   60.94300
      C    C185    28.02000    1.84400   61.16200
      C    C186    27.54200    0.71700   60.26500
      O    O187    28.35400   -0.03600   59.68700
      N    N188    26.22500    0.58400   60.15600
      C    C189    25.63000   -0.42400   59.29400
      C    C190    26.01900   -0.21900   57.84200
      O    O191    26.38600   -1.15600   57.13000
      N    N192    25.93000    1.02400   57.39600
      C    C193    26.21400    1.33600   56.00500
      C    C194    27.70100    1.13400   55.70500
      O    O195    28.05000    0.67000   54.60800
      C    C196    25.74300    2.74800   55.66200
      C    C197    24.23400    2.94100   55.67100
      C    C198    23.89400    4.43500   55.50800
      C    C199    23.52600    2.07700   54.61000
      N    N200    28.56800    1.44300   56.66800
      C    C201    30.02000    1.26500   56.47800
      C    C202    30.34800   -0.20800   56.28700
      O    O203    31.19500   -0.56200   55.44800
      C    C204    30.82100    1.85100   57.66900
      N    N205    29.70900   -1.07200   57.08600
      C    C206    29.88700   -2.51300   56.92000
      C    C207    29.36000   -2.95800   55.56300
      O    O208    30.01100   -3.73900   54.86200
      C    C209    29.18100   -3.29600   58.04200
      C    C210    29.20300   -4.81500   57.87000
      C    C211    30.63200   -5.36200   57.79900
      N    N212    30.65000   -6.79400   57.49700
      C    C213    30.44700   -7.32800   56.29400
      N    N214    30.21800   -6.56300   55.23600
      N    N215    30.47700   -8.64700   56.14600
      N    N216    28.19200   -2.46100   55.17500
      C    C217    27.59900   -2.85000   53.89800
      C    C218    28.52600   -2.46300   52.73500
      O    O219    28.70500   -3.24000   51.78500
      C    C220    26.19400   -2.22800   53.72600
      N    N221    29.14500   -1.28900   52.82200
      C    C222    29.96200   -0.77500   51.71500
      C    C223    31.20600   -1.62900   51.49000
      O    O224    31.69900   -1.70500   50.35400
      C    C225    30.36300    0.66100   51.95900
      N    N226    31.71800   -2.25400   52.55500
      C    C227    32.95000   -3.07300   52.45600
      C    C228    32.84500   -4.17300   51.40300
      O    O229    33.81100   -4.44800   50.68000
      C    C230    33.29500   -3.70800   53.80800
      C    C231    33.87000   -2.74300   54.83200
      C    C232    33.94600   -3.33600   56.23700
      O    O233    33.63100   -4.50800   56.45400
      N    N234    34.36300   -2.52000   57.19900
      N    N235    31.68600   -4.81200   51.31900
      C    C236    31.50300   -5.93500   50.40400
      C    C237    30.56200   -5.65200   49.22700
      O    O238    30.59700   -6.38500   48.23000
      C    C239    31.01400   -7.18300   51.16200
      O    O240    29.86200   -6.85100   51.94100
      C    C241    32.12000   -7.72000   52.07700
      N    N242    29.74700   -4.59800   49.31400
      C    C243    29.26000   -3.09300   47.41200
      O    O244    30.09400   -2.28000   47.84900
      C    C245    28.80500   -4.27000   48.24500
      C    C246    27.46200   -3.93300   48.82600
      C    C247    26.93900   -4.97900   49.75300
      S    S248    25.62800   -4.23500   50.66100
      C    C249    24.43600   -4.00200   49.34100
      C    C250    28.78400   -4.28400   48.25300
      C    C251    27.38600   -4.01700   48.83100
      C    C252    26.71900   -5.21600   49.55500
      S    S253    25.95200   -6.47600   48.48700
      C    C254    25.45400   -7.71500   49.68200
      N    N255    28.71400   -3.00400   46.20300
      C    C256    29.10400   -1.97600   45.26300
      C    C257    27.87600   -1.23600   44.77000
      O    O258    26.77800   -1.79500   44.74200
      C    C259    29.84200   -2.61500   44.08800
      C    C260    31.13600   -3.33000   44.50300
      C    C261    31.76500   -4.09500   43.34400
      N    N262    30.90800   -5.20200   42.90200
      C    C263    30.84700   -6.40800   43.47300
      N    N264    31.59300   -6.70500   44.53800
      N    N265    30.03000   -7.33200   42.97200
      N    N266    28.08700    0.01800   44.38000
      C    C267    27.07000    0.82000   43.71800
      C    C268    25.89600    1.07900   44.66800
      O    O269    24.74400    1.12400   44.23600
      C    C270    26.58800    0.13800   42.43100
      N    N271    26.18800    1.23500   45.96000
      C    C272    25.14100    1.64300   46.93400
      C    C273    24.57700    3.00700   46.54600
      O    O274    25.32000    3.92100   46.17900
      C    C275    25.69200    1.71100   48.35500
      C    C276    26.22400    0.43300   49.01100
      C    C277    26.52000    0.71600   50.49200
      C    C278    25.25800   -0.74500   48.90100
      N    N279    23.26300    3.14800   46.58600
      C    C280    22.61100    4.33700   46.07400
      C    C281    21.75100    5.02800   47.13000
      O    O282    21.79600    6.25600   47.24400
      C    C283    21.73800    4.01100   44.85000
      C    C284    22.51200    4.00300   43.51900
      O    O285    23.60400    4.62800   43.38000
      O    O286    21.99500    3.35600   42.57000
      N    N287    20.95800    4.26700   47.88400
      C    C288    20.07200    4.89600   48.88900
      C    C289    19.81500    3.96200   50.05600
      O    O290    20.07200    2.77400   49.97500
      C    C291    18.75500    5.36700   48.27500
      C    C292    17.70700    4.29400   48.09900
      C    C293    16.74200    3.95200   48.99200
      C    C294    17.56000    3.38500   46.98400
      N    N295    15.97300    2.91800   48.49700
      C    C296    16.45600    2.55400   47.26900
      C    C297    18.21700    3.23100   45.75600
      C    C298    16.00900    1.56400   46.38200
      C    C299    17.77700    2.23000   44.89000
      C    C300    16.69100    1.41700   45.21500
      N    N301    19.33600    4.52800   51.15800
      C    C302    18.79800    3.73400   52.26200
      C    C303    17.50600    4.34900   52.76900
      O    O304    17.19700    5.51800   52.51500
      C    C305    19.78600    3.58100   53.41300
      C    C306    19.99700    4.84000   54.22600
      C    C307    20.93300    5.78100   53.82700
      C    C308    19.25800    5.09000   55.36600
      C    C309    21.14400    6.92500   54.55800
      C    C310    19.46500    6.27000   56.11300
      C    C311    20.39500    7.16500   55.70200
      N    N312    16.73800    3.50400   53.44600
      C    C313    15.47600    3.86200   54.04900
      C    C314    15.40200    3.19200   55.41000
      O    O315    15.47900    1.96100   55.52200
      C    C316    14.32700    3.37800   53.17200
      C    C317    12.96000    3.66500   53.72500
      C    C318    11.83100    2.80100   53.12000
      O    O319    12.07000    1.97400   52.21500
      O    O320    10.67700    2.94400   53.59200
      N    N321    15.25300    3.98200   56.46100
      C    C322    15.12000    3.40100   57.80000
      C    C323    13.75000    2.71500   57.95900
      O    O324    12.70900    3.30100   57.66500
      C    C325    15.28700    4.46900   58.88200
      C    C326    14.99000    3.90700   60.29000
      C    C327    16.69500    5.05500   58.84600
      N    N328    13.77400    1.47200   58.43200
      C    C329    12.57500    0.68100   58.67500
      C    C330    12.12500    0.74800   60.12300
      O    O331    10.91700    0.75900   60.40600
      C    C332    12.81000   -0.78400   58.28900
      C    C333    13.32300   -1.03700   56.89700
      C    C334    12.34200   -0.54300   55.87300
      O    O335    11.22500   -1.09800   55.74000
      N    N336    12.71900    0.52500   55.14900
      N    N337    13.09200    0.77200   61.04200
      C    C338    12.80600    0.82300   62.46900
      C    C339    14.02200    1.26300   63.26700
      O    O340    15.15800    1.10900   62.82200
      C    C341    12.33000   -0.51400   62.99500
      O    O342    13.32200   -1.49300   62.90800
      N    N343    13.74700    1.83900   64.43200
      C    C344    14.76200    2.19700   65.41600
      C    C345    14.36900    1.50800   66.72400
      O    O346    13.30200    1.75600   67.27600
      C    C347    14.82100    3.71100   65.67200
      C    C348    15.11300    4.48300   64.37800
      C    C349    15.87000    3.99900   66.76400
      C    C350    14.85500    5.96100   64.46800
      N    N351    15.21900    0.60100   67.15600
      C    C352    15.02800   -0.18600   68.35200
      C    C353    16.30200   -0.07400   69.17400
      O    O354    17.28500    0.56400   68.76500
      C    C355    14.75600   -1.64300   67.94900
      C    C356    13.52000   -1.78100   67.08800
      C    C357    13.40600   -3.17100   66.43600
      N    N358    12.98700   -4.12500   67.44500
      C    C359    11.73300   -4.53300   67.66100
      N    N360    10.71900   -4.12300   66.89900
      N    N361    11.49800   -5.38800   68.65100
      N    N362    16.31200   -0.69600   70.33900
      C    C363    17.54600   -0.81800   71.08600
      C    C364    17.45700   -1.83500   72.18100
      O    O365    16.36700   -2.20900   72.62400
      N    N366    18.62900   -2.26600   72.62800
      C    C367    18.76900   -3.20400   73.73400
      C    C368    19.19000   -2.42700   74.96900
      O    O369    20.14300   -1.64500   74.91700
      C    C370    19.84200   -4.23000   73.36700
      C    C371    20.08300   -5.27100   74.41400
      N    N372    19.06000   -5.85800   75.12500
      C    C373    21.22800   -5.82700   74.87000
      C    C374    19.56300   -6.73200   75.97600
      N    N375    20.87700   -6.72700   75.85100
      N    N376    18.49100   -2.67500   76.07500
      C    C377    18.73800   -2.04500   77.35800
      C    C378    19.44900   -3.03500   78.29700
      O    O379    19.06400   -4.19400   78.38500
      C    C380    17.39300   -1.60600   77.98100
      C    C381    16.59300   -0.69000   77.04300
      C    C382    15.14400   -0.38300   77.48700
      C    C383    17.40800    0.56500   76.86900
      N    N384    20.47400   -2.54900   78.98000
      C    C385    21.21100   -3.32600   80.00000
      C    C386    21.41900   -2.42500   81.20400
      O    O387    21.91600   -1.32100   81.06800
      C    C388    22.57400   -3.82300   79.45000
      C    C389    23.43700   -4.46700   80.58100
      C    C390    22.35500   -4.79100   78.26800
      N    N391    21.01100   -2.89900   82.38200
      C    C392    21.12300   -2.12600   83.63000
      C    C393    20.48400   -0.73500   83.48600
      O    O394    21.00200    0.26700   83.98900
      C    C395    22.59500   -2.01100   84.06000
      C    C396    23.22000   -3.36100   84.37900
      O    O397    22.49700   -4.27300   84.82700
      O    O398    24.44200   -3.50900   84.17000
      N    N399    19.36500   -0.69400   82.77100
      C    C400    18.59900    0.52600   82.61800
      C    C401    19.13600    1.52700   81.61700
      O    O402    18.51800    2.58100   81.45300
      N    N403    20.24700    1.20600   80.94200
      C    C404    20.90800    2.08800   79.97200
      C    C405    20.82800    1.49300   78.57100
      O    O406    20.63600    0.30000   78.43000
      C    C407    22.37600    2.27100   80.36600
      N    N408    20.93800    2.32300   77.52500
      C    C409    20.97200    1.80300   76.14900
      C    C410    22.35500    1.23600   75.82600
      O    O411    23.35600    1.97600   75.75300
      C    C412    20.58600    2.87000   75.10100
      C    C413    20.60200    2.24700   73.69400
      C    C414    19.22700    3.47900   75.47100
      N    N415    22.42400   -0.08400   75.68000
      C    C416    23.65400   -0.75300   75.30900
      C    C417    23.95300   -0.59400   73.82300
      O    O418    25.10200   -0.36200   73.43400
      C    C419    23.58400   -2.23200   75.69800
      N    N420    22.92400   -0.76500   72.98900
      C    C421    23.01200   -0.48900   71.55700
      C    C422    21.70600    0.02000   71.01600
      O    O423    20.64900   -0.58300   71.27400
      C    C424    23.35600   -1.74400   70.76100
      C    C425    24.77200   -2.18600   70.91200
      N    N426    25.15700   -3.08900   71.87200
      C    C427    25.89600   -1.85700   70.22500
      C    C428    26.46000   -3.29100   71.78600
      N    N429    26.93200   -2.56100   70.79100
      N    N430    21.79100    1.10100   70.23700
      C    C431    20.76900    1.48800   69.28600
      C    C432    20.88300    0.52800   68.09800
      O    O433    22.00100    0.17500   67.67600
      C    C434    20.96100    2.93100   68.76400
      C    C435    20.75000    4.00600   69.81800
      C    C436    21.69100    4.22400   70.81900
      C    C437    19.60700    4.78400   69.78900
      C    C438    21.48600    5.20800   71.77500
      C    C439    19.39100    5.77900   70.74400
      C    C440    20.32300    5.98500   71.73200
      N    N441    19.74100    0.12600   67.55600
      C    C442    19.68200   -0.84200   66.46100
      C    C443    18.76500   -0.26100   65.38700
      O    O444    17.56600   -0.09900   65.62300
      C    C445    19.13300   -2.16400   66.94400
      C    C446    19.95400   -2.80500   68.02600
      C    C447    19.18100   -3.79600   68.86400
      O    O448    17.97400   -3.68800   69.01300
      N    N449    19.89600   -4.76700   69.44200
      N    N450    19.34100    0.10500   64.23700
      C    C451    18.59500    0.78500   63.18100
      C    C452    18.55300   -0.12100   61.96000
      O    O453    19.58400   -0.40500   61.34400
      C    C454    19.17800    2.16200   62.82100
      C    C455    18.35000    2.83100   61.70900
      C    C456    19.27800    3.07300   64.07000
      N    N457    17.35000   -0.59700   61.66200
      C    C458    17.09600   -1.47600   60.50800
      C    C459    16.90700   -0.58300   59.28900
      O    O460    16.12800    0.34700   59.32700
      C    C461    15.87000   -2.36100   60.74300
      O    O462    16.08400   -3.17300   61.93200
      C    C463    15.60800   -3.30000   59.51900
      N    N464    17.61500   -0.89500   58.21200
      C    C465    17.55600   -0.13200   56.98900
      C    C466    17.36900   -1.03100   55.79500
      O    O467    17.99400   -2.08100   55.69800
      C    C468    18.88000    0.61000   56.75200
      C    C469    19.20200    1.65200   57.84000
      S    S470    20.87400    2.31200   57.75100
      C    C471    21.76300    1.01900   58.62200
      N    N472    16.56700   -0.57200   54.84600
      C    C473    17.74200   -0.30200   52.74000
      O    O474    17.86500    0.92000   52.89500
      C    C475    16.67100   -1.08900   53.48300
      C    C476    15.33500   -1.00800   52.75200
      C    C477    14.41400   -2.12800   53.20300
      C    C478    13.13600   -2.18700   52.43800
      C    C479    12.37700   -3.42800   52.84600
      N    N480    11.07000   -3.54800   52.15800
      C    C481    16.66100   -1.08500   53.48100
      C    C482    15.31700   -0.97200   52.76400
      C    C483    14.32500   -1.97100   53.32600
      C    C484    12.97900   -1.94000   52.66000
      C    C485    12.13200   -3.09200   53.19900
      N    N486    12.79100   -4.42300   52.96200
      N    N487    18.53000   -1.00100   51.93200
      C    C488    19.65900   -0.40000   51.24400
      C    C489    19.56700   -0.81400   49.79700
      O    O490    19.59000   -2.00800   49.48800
      C    C491    21.02100   -0.85200   51.82000
      C    C492    22.16800   -0.18000   51.07000
      C    C493    21.08100   -0.55200   53.32400
      N    N494    19.46100    0.16800   48.92200
      C    C495    19.32400   -0.09000   47.49800
      C    C496    20.61900    0.15200   46.74900
      O    O497    21.33200    1.10900   47.03000
      N    N498    20.92200   -0.74000   45.80700
      C    C499    22.12600   -0.62500   44.99100
      C    C500    21.87000   -1.05000   43.56200
      O    O501    20.97500   -1.82400   43.27700
      C    C502    23.30400   -1.40400   45.60300
      C    C503    23.08900   -2.89900   45.70700
      C    C504    22.51900   -3.45400   46.84800
      C    C505    23.48000   -3.73800   44.69000
      C    C506    22.36000   -4.83800   46.96300
      C    C507    23.30600   -5.12100   44.80200
      C    C508    22.74900   -5.65300   45.94100
      N    N509    22.66000   -0.51500   42.64100
      C    C510    22.47700   -0.82500   41.26200
      C    C511    23.08800   -2.16600   40.89400
      O    O512    24.28900   -2.40700   41.13800
      C    C513    23.09500    0.25600   40.39200
      C    C514    22.62600    0.11700   38.96400
      C    C515    23.65600    0.39900   37.96700
      N    N516    24.02500    1.79900   37.86700
      C    C517    25.24000    2.30400   38.12000
      N    N518    26.24600    1.53800   38.56900
      N    N519    25.45400    3.60500   37.92000
      N    N520    22.29900   -3.01700   40.23800
      C    C521    22.81200   -4.29200   39.74700
      C    C522    23.66800   -4.10300   38.50400
      O    O523    23.32200   -3.36000   37.57300
      C    C524    21.69300   -5.26400   39.39300
      C    C525    20.93300   -5.85200   40.56300
      C    C526    19.79600   -6.72400   39.99400
      C    C527    21.85400   -6.67300   41.45300
      N    N528    24.77700   -4.82700   38.49200
      C    C529    25.65400   -4.88000   37.35900
      C    C530    24.98900   -5.80900   36.34300
      O    O531    24.15200   -6.64700   36.70300
      C    C532    27.02200   -5.42300   37.80700
      C    C533    27.67700   -4.57800   38.93400
      C    C534    28.71800   -5.33400   39.78400
      O    O535    28.74900   -6.59000   39.75900
      O    O536    29.50500   -4.65900   40.49900
      N    N537    25.34000   -5.64600   35.07900
      C    C538    24.81200   -6.51700   34.02300
      C    C539    25.43300   -7.91900   34.08200
      O    O540    24.72700   -8.91000   34.31800
      C    C541    25.04600   -5.88100   32.65000
      C    C542    24.28300   -4.56700   32.48000
      O    O543    23.25600   -4.37700   33.17000
      O    O544    24.71200   -3.72600   31.65500
