# CIF file generated by openbabel 2.3.2, see http://openbabel.sf.net
data_I
_chemical_name_common '../proteins/pdb/2YJ0.pdb'
_cell_length_a 94
_cell_length_b 103.8
_cell_length_c 82.5
_cell_angle_alpha 90
_cell_angle_beta 90
_cell_angle_gamma 90
_space_group_name_H-M_alt 'C 2 2 21'
_space_group_name_Hall 'C 2c 2'
loop_
    _symmetry_equiv_pos_as_xyz
    'x,y,z'
    '-x,-y,1/2+z'
    '-x,y,1/2-z'
    'x,-y,-z'
    '1/2+x,1/2+y,z'
    '1/2-x,1/2-y,1/2+z'
    '1/2-x,1/2+y,1/2-z'
    '1/2+x,1/2-y,-z'
loop_
    _atom_site_type_symbol
    _atom_site_label
    _atom_site_Cartn_x
    _atom_site_Cartn_y
    _atom_site_Cartn_z
      N    N1   -12.76000  -25.58000    9.32900
      C    C2   -13.64700  -24.95000   10.35000
      C    C3   -15.06800  -24.75400    9.81000
      O    O4   -15.34000  -25.03800    8.63900
      C    C5   -13.04300  -23.62300   10.82900
      O    O6   -11.99000  -23.85400   11.75200
      N    N7   -15.96400  -24.27600   10.67600
      C    C8   -17.39800  -24.18500   10.36600
      C    C9   -18.03300  -22.88500   10.87300
      O    O10   -17.71700  -22.40900   11.96800
      C    C11   -18.15000  -25.41100   10.91300
      C    C12   -17.29000  -26.27600   11.82800
      O    O13   -16.96900  -25.88900   12.95300
      N    N14   -16.92000  -27.45700   11.34500
      N    N15   -18.94000  -22.33000   10.06900
      C    C16   -19.47700  -20.98600   10.30100
      C    C17   -20.46800  -20.91200   11.45800
      O    O18   -21.18900  -21.86600   11.74100
      C    C19   -20.14200  -20.44100    9.02800
      C    C20   -19.21300  -20.35600    7.85800
      N    N21   -18.12300  -19.51200    7.83600
      C    C22   -19.19700  -21.02300    6.68000
      C    C23   -17.47800  -19.66000    6.69200
      N    N24   -18.10900  -20.57100    5.97300
      N    N25   -20.47600  -19.76200   12.12500
      C    C26   -21.47400  -19.43900   13.13000
      C    C27   -22.25100  -18.22600   12.62600
      O    O28   -21.68800  -17.36400   11.95100
      C    C29   -20.82100  -19.11400   14.48800
      O    O30   -19.92000  -20.16600   14.85400
      C    C31   -21.87500  -18.95200   15.57500
      N    N32   -23.54300  -18.16600   12.93700
      C    C33   -24.36800  -17.04200   12.51800
      C    C34   -24.90600  -16.30200   13.72200
      O    O35   -25.03800  -16.87200   14.80400
      C    C36   -25.51500  -17.50700   11.61900
      C    C37   -25.02400  -18.24400   10.40200
      C    C38   -24.64200  -19.57900   10.48800
      C    C39   -24.90300  -17.60300    9.17300
      C    C40   -24.17000  -20.26300    9.38400
      C    C41   -24.43500  -18.28200    8.05800
      C    C42   -24.06900  -19.61100    8.17000
      O    O43   -23.60500  -20.29400    7.06800
      N    N44   -25.19600  -15.02300   13.51500
      C    C45   -25.77100  -14.16800   14.53500
      C    C46   -27.18000  -13.81500   14.08300
      O    O47   -27.40200  -13.54500   12.90400
      C    C48   -24.91900  -12.90800   14.68800
      C    C49   -25.41600  -11.90600   15.72300
      C    C50   -25.08000  -12.32000   17.14800
      N    N51   -25.36200  -11.23600   18.08800
      C    C52   -26.57000  -10.91700   18.55500
      N    N53   -27.65300  -11.60100   18.19300
      N    N54   -26.69400   -9.90200   19.40100
      N    N55   -28.12700  -13.82300   15.01700
      C    C56   -29.51400  -13.48700   14.71400
      C    C57   -29.96600  -12.29200   15.55800
      O    O58   -30.22700  -12.42500   16.75000
      C    C59   -30.45300  -14.69400   14.94000
      C    C60   -31.84500  -14.39300   14.40500
      C    C61   -29.88700  -15.94300   14.27000
      N    N62   -30.02400  -11.12000   14.93100
      C    C63   -30.56500   -9.92400   15.57400
      C    C64   -32.02800   -9.74000   15.19600
      O    O65   -32.52400  -10.37900   14.26700
      C    C66   -29.76000   -8.63900   15.23600
      C    C67   -29.80700   -8.30000   13.74100
      C    C68   -28.32000   -8.78600   15.70100
      C    C69   -29.04400   -7.02800   13.38900
      N    N70   -32.70800   -8.86800   15.92900
      C    C71   -34.12100   -8.60900   15.70800
      C    C72   -34.34100   -7.11800   15.47400
      O    O73   -33.92700   -6.29300   16.28400
      C    C74   -34.90800   -9.08600   16.91800
      C    C75   -36.41100   -9.12000   16.73700
      C    C76   -37.08600   -9.89000   17.85500
      O    O77   -36.38000  -10.62300   18.58000
      O    O78   -38.31300   -9.76900   18.01900
      N    N79   -34.97600   -6.78300   14.35400
      C    C80   -35.24100   -5.39400   13.98800
      C    C81   -36.70600   -5.24300   13.59900
      O    O82   -37.38900   -6.23800   13.36600
      C    C83   -34.33700   -4.92700   12.81600
      C    C84   -34.68400   -5.65600   11.51400
      C    C85   -32.87000   -5.16400   13.14800
      C    C86   -34.01300   -5.06900   10.28200
      N    N87   -37.18900   -4.00300   13.55100
      C    C88   -38.52400   -3.71800   13.03100
      C    C89   -38.41700   -2.69300   11.91000
      O    O90   -38.05100   -1.54100   12.14200
      C    C91   -39.48700   -3.18400   14.11300
      C    C92   -40.88400   -3.01400   13.53000
      C    C93   -39.53100   -4.12400   15.30700
      N    N94   -38.71900   -3.12900   10.69200
      C    C95   -38.78700   -2.22700    9.55200
      C    C96   -40.14800   -1.56000    9.50600
      O    O97   -41.15300   -2.17200    9.87900
      N    N98   -40.18600   -0.30300    9.06800
      C    C99   -41.45700    0.40800    8.92600
      C    C100   -41.62300    1.06100    7.55200
      O    O101   -40.64800    1.39500    6.87500
      C    C102   -41.66400    1.47400   10.03700
      O    O103   -40.80700    2.59500    9.80500
      C    C104   -41.38300    0.88800   11.42200
      N    N105   -42.88500    1.21900    7.16100
      C    C106   -43.27300    1.87300    5.91700
      C    C107   -44.72600    2.29800    6.02200
      O    O108   -45.52200    1.60300    6.64800
      C    C109   -43.11400    0.92900    4.72500
      O    O110   -43.73600    1.46800    3.56300
      N    N111   -45.08400    3.43900    5.41200
      C    C112   -46.49700    3.78000    5.29900
      C    C113   -47.22500    3.07400    4.14600
      O    O114   -48.44300    3.19300    4.05100
      C    C115   -46.47300    5.29400    5.06900
      C    C116   -45.17200    5.56500    4.45300
      C    C117   -44.21600    4.55000    4.99000
      N    N118   -46.49900    2.34400    3.29600
      C    C119   -47.09000    1.72400    2.09600
      C    C120   -47.56900    0.29500    2.30100
      O    O121   -48.65100   -0.07100    1.83900
      C    C122   -46.09800    1.75300    0.93200
      C    C123   -45.81900    3.15200    0.45300
      O    O124   -46.06500    4.09700    1.23000
      O    O125   -45.35800    3.30600   -0.69600
      N    N126   -46.76700   -0.52200    2.97000
      C    C127   -47.15900   -1.90700    3.18200
      C    C128   -46.12600   -2.79900    3.82700
      O    O129   -45.06600   -2.34400    4.26200
      N    N130   -46.45100   -4.08600    3.86500
      C    C131   -45.62300   -5.08800    4.52500
      C    C132   -44.28000   -5.27800    3.82400
      O    O133   -43.24200   -5.35500    4.48400
      C    C134   -46.35800   -6.44900    4.61300
      C    C135   -45.42200   -7.54000    5.12000
      C    C136   -47.57500   -6.33100    5.51500
      N    N137   -44.30100   -5.34700    2.49600
      C    C138   -43.07500   -5.57800    1.72600
      C    C139   -42.11900   -4.40000    1.87500
      O    O140   -40.91700   -4.59100    2.06600
      C    C141   -43.38000   -5.81900    0.24200
      C    C142   -44.35400   -6.96200    0.02200
      O    O143   -44.05800   -8.09200    0.45700
      O    O144   -45.42000   -6.73200   -0.59000
      N    N145   -42.66600   -3.18900    1.79600
      C    C146   -41.87600   -1.96800    1.92100
      C    C147   -41.27400   -1.81000    3.32100
      O    O148   -40.17600   -1.26400    3.47200
      C    C149   -42.72700   -0.75000    1.57000
      N    N150   -41.99900   -2.27300    4.33700
      C    C151   -41.50900   -2.24400    5.71300
      C    C152   -40.33100   -3.19900    5.86200
      O    O153   -39.27700   -2.82100    6.37600
      C    C154   -42.62100   -2.61100    6.68300
      N    N155   -40.52200   -4.43300    5.39900
      C    C156   -39.46300   -5.44000    5.37200
      C    C157   -38.20400   -4.88200    4.72800
      O    O158   -37.11800   -4.92500    5.31200
      C    C159   -39.89100   -6.68900    4.57200
      C    C160   -40.85800   -7.54800    5.38900
      C    C161   -38.66900   -7.51300    4.16500
      C    C162   -41.58500   -8.59800    4.55900
      N    N163   -38.36200   -4.35000    3.52400
      C    C164   -37.22500   -3.83300    2.77100
      C    C165   -36.65100   -2.55700    3.37300
      O    O166   -35.43700   -2.34500    3.32600
      C    C167   -37.58500   -3.63700    1.29600
      C    C168   -37.17800   -4.84400    0.44900
      C    C169   -38.01800   -5.03100   -0.78900
      O    O170   -39.18900   -4.65200   -0.82700
      N    N171   -37.43100   -5.63700   -1.81000
      N    N172   -37.50900   -1.71600    3.93500
      C    C173   -37.05600   -0.55400    4.68700
      C    C174   -36.14300   -0.95000    5.83100
      O    O175   -35.06100   -0.38600    5.99200
      N    N176   -36.57400   -1.93800    6.61300
      C    C177   -35.79500   -2.42900    7.75100
      C    C178   -34.47300   -3.06600    7.35200
      O    O179   -33.44400   -2.81100    7.97800
      N    N180   -34.49900   -3.89100    6.30800
      C    C181   -33.29900   -4.58300    5.84200
      C    C182   -32.24400   -3.62000    5.28100
      O    O183   -31.04100   -3.86500    5.42000
      C    C184   -33.65900   -5.64400    4.79500
      C    C185   -34.53100   -6.81200    5.27500
      C    C186   -34.83900   -7.75300    4.11800
      C    C187   -33.88500   -7.57300    6.42200
      N    N188   -32.69500   -2.53300    4.65700
      C    C189   -31.78700   -1.52300    4.10600
      C    C190   -30.98400   -0.81800    5.20200
      O    O191   -29.78600   -0.57500    5.03900
      C    C192   -32.56200   -0.50200    3.27500
      N    N193   -31.64300   -0.49500    6.31200
      C    C194   -30.96600    0.11100    7.46100
      C    C195   -29.93600   -0.84400    8.07100
      O    O196   -28.87600   -0.41100    8.52700
      C    C197   -31.98100    0.55400    8.52900
      C    C198   -31.35900    1.09700    9.83200
      C    C199   -30.39500    2.26300    9.58100
      N    N200   -29.73200    2.72700   10.80100
      C    C201   -28.70600    2.11900   11.40200
      N    N202   -28.19500    0.98400   10.92000
      N    N203   -28.18900    2.64900   12.50800
      N    N204   -30.25800   -2.13700    8.08300
      C    C205   -29.33400   -3.17100    8.56600
      C    C206   -28.11500   -3.29300    7.65500
      O    O207   -26.98400   -3.41800    8.13000
      C    C208   -30.04600   -4.50900    8.66000
      N    N209   -28.36000   -3.25100    6.34600
      C    C210   -27.30600   -3.37800    5.33800
      C    C211   -26.29200   -2.23600    5.38400
      O    O212   -25.13900   -2.42300    4.99400
      C    C213   -27.91700   -3.46700    3.95000
      N    N214   -26.72400   -1.06200    5.84700
      C    C215   -25.84000    0.10500    5.97100
      C    C216   -24.60500   -0.16700    6.82500
      O    O217   -23.53100    0.37300    6.55400
      C    C218   -26.59500    1.30500    6.55400
      C    C219   -27.38300    2.10200    5.52900
      C    C220   -28.43300    2.99900    6.16000
      O    O221   -29.51600    3.18500    5.60600
      N    N222   -28.12000    3.55700    7.32400
      N    N223   -24.76600   -0.99300    7.85700
      C    C224   -23.68100   -1.27900    8.79600
      C    C225   -23.25400   -2.74900    8.84500
      O    O226   -22.09600   -3.02800    9.14700
      C    C227   -24.04900   -0.81600   10.22200
      O    O228   -25.25200   -1.46500   10.64900
      C    C229   -24.25000    0.69600   10.26100
      N    N230   -24.16600   -3.67800    8.55500
      C    C231   -23.86100   -5.11200    8.64500
      C    C232   -23.46700   -5.72000    7.30000
      O    O233   -23.93100   -5.29100    6.24200
      C    C234   -25.04500   -5.89000    9.23400
      C    C235   -25.61800   -5.30700   10.53100
      S    S236   -24.39500   -4.97700   11.81700
      C    C237   -23.80100   -6.63000   12.15400
      N    N238   -22.61000   -6.73400    7.37200
      C    C239   -22.11900   -7.46800    6.21600
      C    C240   -22.52400   -8.93400    6.36200
      O    O241   -22.80200   -9.39800    7.47000
      C    C242   -20.59500   -7.35800    6.13700
      C    C243   -20.07700   -5.92900    6.02300
      C    C244   -18.55900   -5.86800    6.09300
      N    N245   -18.04800   -6.22800    7.41400
      C    C246   -18.00900   -5.41500    8.47000
      N    N247   -18.45600   -4.16400    8.39200
      N    N248   -17.51900   -5.86000    9.62200
      N    N249   -22.55400   -9.65000    5.24100
      C    C250   -22.88100  -11.07500    5.22000
      C    C251   -24.30600  -11.37500    5.69600
      O    O252   -24.55300  -12.41300    6.30900
      C    C253   -21.86400  -11.86300    6.04500
      N    N254   -25.23700  -10.46800    5.40400
      C    C255   -26.65200  -10.69300    5.69800
      C    C256   -27.16800  -11.82300    4.81400
      O    O257   -27.03400  -11.76500    3.59600
      C    C258   -27.47000   -9.42100    5.46200
      C    C259   -27.12500   -8.20600    6.32900
      C    C260   -28.04000   -7.04700    5.98600
      C    C261   -27.22200   -8.52700    7.81100
      N    N262   -27.75000  -12.84700    5.43400
      C    C263   -28.10200  -14.08000    4.73300
      C    C264   -29.59900  -14.30200    4.61500
      O    O265   -30.10200  -14.54800    3.51800
      C    C266   -27.46200  -15.27500    5.43300
      C    C267   -25.98300  -15.39900    5.13200
      O    O268   -25.55200  -14.97900    4.03700
      O    O269   -25.24700  -15.92500    5.99100
      N    N270   -30.30600  -14.23100    5.73900
      C    C271   -31.73900  -14.48600    5.74000
      C    C272   -32.47900  -13.58100    6.71100
      O    O273   -31.86900  -12.87400    7.51500
      C    C274   -32.02000  -15.95800    6.06700
      C    C275   -32.02600  -16.30800    7.54200
      C    C276   -33.10200  -16.28400    8.38700
      C    C277   -30.91300  -16.76100    8.33000
      N    N278   -32.72600  -16.67800    9.64700
      C    C279   -31.38900  -16.97700    9.64000
      C    C280   -29.56000  -16.99300    8.05700
      C    C281   -30.56000  -17.41600   10.67600
      C    C282   -28.73600  -17.43200    9.08800
      C    C283   -29.24100  -17.63900   10.37900
      N    N284   -33.80300  -13.59500    6.59500
      C    C285   -34.67300  -12.99200    7.59000
      C    C286   -35.90000  -13.86800    7.80700
      O    O287   -36.26600  -14.66700    6.94700
      C    C288   -35.08400  -11.57400    7.18100
      C    C289   -36.15000  -11.52100    6.11700
      C    C290   -37.49800  -11.52200    6.46000
      C    C291   -35.80600  -11.45100    4.77600
      C    C292   -38.47700  -11.46500    5.48700
      C    C293   -36.78000  -11.38900    3.79900
      C    C294   -38.11900  -11.39900    4.15500
      N    N295   -36.51400  -13.72600    8.97500
      C    C296   -37.81600  -14.31700    9.23700
      C    C297   -38.68600  -13.28100    9.93000
      O    O298   -38.22200  -12.57600   10.82400
      C    C299   -37.70000  -15.56400   10.11300
      C    C300   -39.04400  -16.26100   10.33800
      C    C301   -38.96700  -17.44800   11.28200
      O    O302   -37.98400  -17.55000   12.05400
      O    O303   -39.90300  -18.27900   11.25300
      N    N304   -39.94400  -13.20200    9.51000
      C    C305   -40.90600  -12.27800   10.08500
      C    C306   -41.44800  -12.84700   11.39500
      O    O307   -41.92900  -13.97700   11.43000
      C    C308   -42.08200  -12.02800    9.11800
      C    C309   -43.16300  -11.19000    9.78600
      C    C310   -41.59000  -11.36500    7.83800
      N    N311   -41.36800  -12.05500   12.46100
      C    C312   -41.90600  -12.43000   13.76900
      C    C313   -43.33500  -11.95000   13.93800
      O    O314   -44.17200  -12.66400   14.48600
      C    C315   -41.06100  -11.82400   14.88800
      C    C316   -39.60900  -12.23000   14.85800
      C    C317   -39.44800  -13.72100   14.90000
      O    O318   -39.05800  -14.33900   13.90900
      N    N319   -39.77300  -14.31900   16.03800
      N    N320   -43.60500  -10.72500   13.49800
      C    C321   -44.95900  -10.18800   13.54700
      C    C322   -45.15300   -9.03100   12.58500
      O    O323   -44.19900   -8.35000   12.20400
      C    C324   -45.31100   -9.72800   14.96400
      O    O325   -44.56500   -8.57900   15.32000
      N    N326   -46.41000   -8.83300   12.20300
      C    C327   -46.82200   -7.70300   11.39600
      C    C328   -47.78400   -6.87100   12.23400
      O    O329   -48.79400   -7.37900   12.73000
      C    C330   -47.51300   -8.15700   10.10300
      C    C331   -46.59300   -9.09000    9.30800
      C    C332   -47.90400   -6.94300    9.25900
      C    C333   -47.28500   -9.82400    8.18600
      N    N334   -47.45200   -5.59400   12.38700
      C    C335   -48.20100   -4.67200   13.22400
      C    C336   -48.34400   -3.33400   12.51900
      O    O337   -47.82800   -3.14400   11.42200
      C    C338   -47.47100   -4.46900   14.55000
      C    C339   -47.75700   -5.53300   15.57200
      C    C340   -46.69400   -5.55400   16.65000
      N    N341   -47.02600   -6.50000   17.71200
      C    C342   -47.85200   -6.25300   18.72700
      N    N343   -48.46400   -5.08000   18.85400
      N    N344   -48.07600   -7.19700   19.62800
      N    N345   -49.05300   -2.40900   13.15400
      C    C346   -49.12200   -1.04900   12.65300
      C    C347   -49.74600   -0.06500   13.61600
      O    O348   -50.50300   -0.43700   14.50700
      N    N349   -49.40600    1.20300   13.41500
      C    C350   -49.92700    2.30700   14.20300
      C    C351   -51.02000    2.97300   13.38200
      O    O352   -50.86700    3.15500   12.17100
      C    C353   -48.79200    3.29000   14.50600
      C    C354   -49.20500    4.47900   15.31600
      N    N355   -49.92600    4.37600   16.48600
      C    C356   -48.96700    5.80000   15.13700
      C    C357   -50.13000    5.58300   16.98400
      N    N358   -49.55800    6.46500   16.18300
      N    N359   -52.12000    3.32800   14.03900
      C    C360   -53.26300    3.92800   13.36500
      C    C361   -53.44800    5.37800   13.80400
      O    O362   -53.56000    5.66300   14.99700
      C    C363   -54.52800    3.11300   13.64500
      C    C364   -54.39700    1.62200   13.30900
      C    C365   -55.62900    0.84700   13.73700
      C    C366   -54.12100    1.42600   11.81900
      N    N367   -53.45800    6.28600   12.83200
      C    C368   -53.72800    7.70400   13.07000
      C    C369   -54.96100    8.09700   12.25900
      O    O370   -55.02900    7.82100   11.05900
      C    C371   -52.53100    8.58800   12.65700
      C    C372   -52.81300   10.05200   12.95600
      C    C373   -51.26400    8.13600   13.37000
      N    N374   -55.93000    8.73300   12.91700
      C    C375   -57.22300    9.04000   12.30500
      C    C376   -57.74500    7.86800   11.46400
      O    O377   -57.99100    8.00800   10.26700
      C    C378   -57.12900   10.31900   11.45800
      C    C379   -57.07700   11.58700   12.30300
      O    O380   -57.79000   11.66200   13.33100
      O    O381   -56.33300   12.51900   11.92700
      N    N382   -57.87400    6.70400   12.09800
      C    C383   -58.46200    5.51600   11.46600
      C    C384   -57.68200    4.86800   10.32700
      O    O385   -58.17900    3.93000    9.69800
      N    N386   -56.46200    5.34300   10.07000
      C    C387   -55.66700    4.89900    8.92000
      C    C388   -54.30400    4.37000    9.35200
      O    O389   -53.74100    4.83500   10.33800
      C    C390   -55.48100    6.05200    7.95600
      N    N391   -53.76300    3.41800    8.59600
      C    C392   -52.44400    2.86700    8.89800
      C    C393   -51.37200    3.91700    8.61600
      O    O394   -51.09600    4.22900    7.45900
      C    C395   -52.13900    1.59800    8.06900
      C    C396   -50.78000    1.02400    8.45600
      C    C397   -53.22500    0.55700    8.25800
      N    N398   -50.78000    4.47100    9.67100
      C    C399   -49.73400    5.48800    9.51500
      C    C400   -48.41800    4.82300    9.14000
      O    O401   -47.71400    5.28100    8.23700
      C    C402   -49.57400    6.30400   10.79000
      N    N403   -48.09200    3.74500    9.84500
      C    C404   -46.92900    2.92700    9.52400
      C    C405   -47.25500    1.45300    9.65600
      O    O406   -47.80800    1.02700   10.66800
      C    C407   -45.76400    3.25300   10.45700
      C    C408   -45.19600    4.61800   10.25500
      N    N409   -44.17400    4.87500    9.36700
      C    C410   -45.50700    5.80400   10.82500
      C    C411   -43.88000    6.16200    9.40200
      N    N412   -44.67400    6.74800   10.27900
      N    N413   -46.92200    0.69100    8.62000
      C    C414   -46.83300   -0.75800    8.71300
      C    C415   -45.53900   -1.07400    9.45800
      O    O416   -44.51800   -0.42800    9.22100
      C    C417   -46.81300   -1.39800    7.32000
      C    C418   -48.13300   -1.32800    6.59700
      C    C419   -48.52900   -0.16500    5.94600
      C    C420   -48.98100   -2.42500    6.57300
      C    C421   -49.75100   -0.10100    5.28400
      C    C422   -50.20100   -2.36900    5.91300
      C    C423   -50.58800   -1.20700    5.27000
      N    N424   -45.58800   -2.04900   10.36400
      C    C425   -44.43500   -2.40700   11.18800
      C    C426   -44.21400   -3.91100   11.15400
      O    O427   -45.08000   -4.67500   11.58000
      C    C428   -44.65800   -1.96300   12.63200
      C    C429   -44.73100   -0.45400   12.82500
      C    C430   -45.44500   -0.05400   14.10800
      O    O431   -46.10100   -0.87500   14.75600
      N    N432   -45.32400    1.21700   14.47600
      N    N433   -43.05200   -4.32700   10.65500
      C    C434   -42.73400   -5.73900   10.50800
      C    C435   -41.49400   -6.09000   11.31000
      O    O436   -40.37400   -5.72300   10.94500
      C    C437   -42.50000   -6.10900    9.04000
      C    C438   -42.19500   -7.59700    8.91100
      C    C439   -43.71200   -5.72300    8.20200
      N    N440   -41.70900   -6.80400   12.40800
      C    C441   -39.98000   -8.49200   12.61500
      O    O442   -40.66600   -9.46700   12.30300
      C    C443   -40.62100   -7.26200   13.25100
      C    C444   -41.13500   -7.58000   14.65100
      S    S445   -39.87700   -8.19300   15.78500
      C    C446   -40.61900   -7.26300   13.25400
      C    C447   -41.14100   -7.58300   14.65300
      S    S448   -39.87600   -8.07500   15.83600
      N    N449   -38.66500   -8.43100   12.41700
      C    C450   -37.92200   -9.47500   11.72500
      C    C451   -36.72600   -9.94700   12.53300
      O    O452   -36.04300   -9.13600   13.15800
      C    C453   -37.36500   -8.93200   10.39900
      C    C454   -38.39600   -8.44100    9.40200
      S    S455   -37.64300   -7.70500    7.93400
      C    C456   -37.38400   -6.01800    8.47000
      N    N457   -36.49300  -11.25800   12.52300
      C    C458   -34.31500  -11.76000   11.67600
      O    O459   -34.76600  -12.09200   10.58300
      C    C460   -35.20600  -11.85700   12.90200
      C    C461   -35.34600  -13.35000   13.23700
      C    C462   -35.74600  -13.71500   14.65700
      C    C463   -35.52700  -15.22600   14.87400
      C    C464   -36.51200  -15.84500   15.86600
      N    N465   -36.59600  -17.33400   15.73300
      C    C466   -35.19600  -11.76800   12.92200
      C    C467   -35.30600  -13.14900   13.56500
      C    C468   -35.83200  -13.07100   14.99200
      C    C469   -35.57700  -14.33900   15.77900
      C    C470   -35.94500  -14.15400   17.24400
      N    N471   -35.05700  -13.17800   17.93200
      N    N472   -33.06400  -11.33700   11.84300
      C    C473   -32.13800  -11.21400   10.71700
      C    C474   -30.85800  -11.99200   10.99000
      O    O475   -30.14100  -11.70500   11.94800
      C    C476   -31.76700   -9.74300   10.44600
      C    C477   -30.85700   -9.64300    9.23000
      C    C478   -33.02200   -8.89500   10.24900
      N    N479   -30.57400  -12.97300   10.13700
      C    C480   -29.38400  -13.80500   10.27800
      C    C481   -28.25600  -13.33900    9.37900
      O    O482   -28.46200  -13.09300    8.19300
      N    N483   -27.06500  -13.20100    9.94800
      C    C484   -25.87700  -12.91600    9.15900
      C    C485   -24.71400  -13.77100    9.62700
      O    O486   -24.69300  -14.23700   10.76900
      C    C487   -25.53200  -11.41900    9.18600
      C    C488   -25.23000  -10.87000   10.54800
      C    C489   -26.25400  -10.44600   11.38400
      C    C490   -23.91500  -10.73100   10.97900
      C    C491   -25.97700   -9.92000   12.63600
      C    C492   -23.63000  -10.20200   12.23200
      C    C493   -24.66400   -9.79700   13.06100
      N    N494   -23.76300  -13.99700    8.72800
      C    C495   -22.58900  -14.80400    9.03800
      C    C496   -21.63300  -14.00000    9.91500
      O    O497   -21.35800  -12.83300    9.62800
      C    C498   -21.88300  -15.24700    7.75100
      C    C499   -20.66100  -16.13900    7.98200
      C    C500   -20.02600  -16.62200    6.68400
      N    N501   -19.34600  -15.54700    5.95900
      C    C502   -19.89300  -14.78500    5.00800
      N    N503   -21.15900  -14.95200    4.62300
      N    N504   -19.16000  -13.83900    4.42900
      N    N505   -21.14200  -14.62200   10.98400
      C    C506   -20.13100  -13.99900   11.83200
      C    C507   -18.75400  -14.04200   11.17800
      O    O508   -18.27800  -15.10200   10.76400
      C    C509   -20.03700  -14.68600   13.19800
      C    C510   -21.08200  -14.35900   14.26300
      C    C511   -20.73500  -15.09500   15.54700
      C    C512   -21.16500  -12.85700   14.50900
      N    N513   -18.12400  -12.87300   11.10800
      C    C514   -16.70500  -12.75200   10.79900
      C    C515   -15.93600  -13.07600   12.08100
      O    O516   -16.51800  -13.08000   13.16600
      C    C517   -16.38400  -11.32900   10.32500
      C    C518   -17.25500  -10.84300    9.15800
      C    C519   -16.97900   -9.40100    8.75400
      O    O520   -16.18800   -8.71300    9.43600
      O    O521   -17.56400   -8.94900    7.74300
      N    N522   -14.63700  -13.33600   11.96300
      C    C523   -13.82600  -13.75800   13.11700
      C    C524   -13.67700  -12.65000   14.15600
      O    O525   -13.63400  -12.90900   15.36300
      C    C526   -12.43100  -14.19800   12.67400
      C    C527   -12.46000  -15.07200   11.44800
      O    O528   -13.43100  -15.85000   11.27700
      O    O529   -11.51500  -14.95500   10.64500
