# CIF file generated by openbabel 2.3.2, see http://openbabel.sf.net
data_I
_chemical_name_common '../proteins/pdb/2ZFZ.pdb'
_cell_length_a 57.673
_cell_length_b 75.947
_cell_length_c 107.099
_cell_angle_alpha 90
_cell_angle_beta 90
_cell_angle_gamma 90
_space_group_name_H-M_alt 'P 21 21 21'
_space_group_name_Hall 'P 2ac 2ab'
loop_
    _symmetry_equiv_pos_as_xyz
    'x,y,z'
    '1/2-x,-y,1/2+z'
    '-x,1/2+y,1/2-z'
    '1/2+x,1/2-y,-z'
loop_
    _atom_site_type_symbol
    _atom_site_label
    _atom_site_Cartn_x
    _atom_site_Cartn_y
    _atom_site_Cartn_z
      N    N1   -19.10000   20.88900   21.06700
      C    C2   -18.00500   21.21500   22.05100
      C    C3   -18.54100   21.69400   23.41200
      O    O4   -19.54100   22.41800   23.50400
      C    C5   -16.94800   22.16800   21.44500
      O    O6   -15.69700   21.48500   21.34600
      C    C7   -16.74700   23.39100   22.28000
      N    N8   -17.86300   21.27900   24.47100
      C    C9   -18.32700   21.60600   25.80800
      C    C10   -17.60400   22.83500   26.37800
      O    O11   -18.02400   23.39700   27.39200
      C    C12   -18.27200   20.37400   26.71800
      C    C13   -16.85900   19.94700   27.05900
      O    O14   -16.69300   18.81900   27.57000
      O    O15   -15.91700   20.73000   26.82600
      N    N16   -16.54400   23.27900   25.70100
      C    C17   -16.05100   24.62500   25.93600
      C    C18   -17.17600   25.62400   25.60400
      O    O19   -17.44100   26.56100   26.36400
      C    C20   -14.80900   24.92300   25.10200
      C    C21   -14.20800   26.26300   25.45300
      C    C22   -13.34300   26.84800   24.31800
      N    N23   -12.28100   27.71600   24.85300
      C    C24   -12.48600   28.91100   25.41500
      N    N25   -13.72000   29.38800   25.51900
      N    N26   -11.46300   29.63100   25.88200
      N    N27   -17.84300   25.39700   24.47300
      C    C28   -19.02400   26.17000   24.08600
      C    C29   -20.13800   26.05700   25.12400
      O    O30   -20.71500   27.06800   25.52100
      C    C31   -19.54800   25.72100   22.71100
      C    C32   -20.89000   26.40900   22.30500
      S    S33   -21.52200   25.74800   20.75700
      C    C34   -21.90200   24.02800   21.21300
      N    N35   -20.43800   24.83200   25.55600
      C    C36   -21.49600   24.61400   26.55900
      C    C37   -21.23000   25.33000   27.88400
      O    O38   -22.14000   25.93200   28.45600
      C    C39   -21.73100   23.14500   26.78400
      N    N40   -19.98100   25.30100   28.35400
      C    C41   -19.59700   26.05100   29.54300
      C    C42   -19.85100   27.53900   29.36800
      O    O43   -20.31900   28.19400   30.29600
      C    C44   -18.12400   25.82200   29.89400
      C    C45   -17.65600   26.60100   31.15700
      C    C46   -16.19400   26.27400   31.57000
      N    N47   -15.21300   26.63100   30.54000
      C    C48   -14.68300   27.84700   30.38500
      N    N49   -15.03600   28.84700   31.19200
      N    N50   -13.78900   28.06300   29.42000
      N    N51   -19.55100   28.07400   28.18300
      C    C52   -19.68200   29.51900   27.96500
      C    C53   -21.10800   29.92400   27.69500
      O    O54   -21.48300   31.04100   28.03300
      C    C55   -18.73200   30.04600   26.88900
      C    C56   -17.23600   30.08700   27.23200
      C    C57   -16.50100   30.74400   26.06400
      C    C58   -16.92500   30.86500   28.55700
      N    N59   -21.91400   29.02300   27.12300
      C    C60   -23.37200   29.26600   27.04800
      C    C61   -23.95500   29.48800   28.44600
      O    O62   -24.70800   30.43900   28.68200
      C    C63   -24.10200   28.14300   26.31100
      C    C64   -23.78100   28.04900   24.80900
      C    C65   -24.33000   26.72900   24.17300
      C    C66   -24.26800   29.29700   24.06200
      N    N67   -23.58700   28.63200   29.39600
      C    C68   -24.08200   28.77500   30.77300
      C    C69   -23.65600   30.11700   31.34300
      O    O70   -24.46200   30.85700   31.92500
      N    N71   -22.37700   30.43000   31.14900
      C    C72   -21.78200   31.64600   31.67500
      C    C73   -22.32400   32.92800   30.99200
      O    O74   -22.55700   33.94300   31.65900
      C    C75   -20.25500   31.54600   31.55400
      C    C76   -19.50400   32.84300   31.84600
      C    C77   -17.98200   32.68100   31.80300
      O    O78   -17.27000   33.70300   31.94100
      O    O79   -17.51200   31.53900   31.66100
      N    N80   -22.52600   32.87800   29.67200
      C    C81   -22.69000   34.10700   28.88000
      C    C82   -24.00600   34.28800   28.13600
      O    O83   -24.30100   35.38700   27.72400
      C    C84   -21.56200   34.21000   27.83200
      C    C85   -20.13000   34.23800   28.39100
      C    C86   -19.09400   34.25700   27.26200
      C    C87   -19.99500   35.41700   29.29000
      N    N88   -24.74900   33.21600   27.88700
      C    C89   -25.99500   33.33400   27.11800
      C    C90   -27.12700   33.97700   27.92700
      O    O91   -27.73900   33.32600   28.79300
      C    C92   -26.43100   31.95500   26.59000
      C    C93   -27.53600   31.90900   25.50700
      C    C94   -27.01700   32.42500   24.17200
      C    C95   -28.05000   30.48200   25.32800
      N    N96   -27.41000   35.24400   27.64800
      C    C97   -28.45500   35.97900   28.36000
      C    C98   -29.83400   35.53800   27.84500
      O    O99   -30.75600   35.22900   28.62300
      C    C100   -28.26400   37.49900   28.21400
      C    C101   -29.43500   38.23400   28.78700
      C    C102   -26.93000   37.95600   28.90400
      N    N103   -29.95000   35.47400   26.52900
      C    C104   -31.22600   35.07700   25.89800
      C    C105   -30.97300   34.66600   24.45600
      O    O106   -29.92700   34.99600   23.86400
      C    C107   -32.22200   36.24500   25.91400
      O    O108   -31.76400   37.31500   25.10000
      N    N109   -31.93800   33.94700   23.89300
      C    C110   -31.91700   33.61200   22.46500
      C    C111   -33.19400   34.13000   21.79200
      O    O112   -34.24200   34.34000   22.44400
      C    C113   -31.80600   32.09100   22.20900
      O    O114   -32.97400   31.41000   22.72200
      C    C115   -30.56600   31.52000   22.82200
      N    N116   -33.09500   34.38000   20.49500
      C    C117   -34.24100   34.76700   19.70100
      C    C118   -33.88100   34.37000   18.26400
      O    O119   -32.80300   33.82400   18.04000
      C    C120   -34.52200   36.27700   19.85200
      C    C121   -36.00100   36.63400   19.62900
      O    O122   -36.44400   37.69100   20.13500
      O    O123   -36.70200   35.86500   18.92900
      N    N124   -34.77500   34.60200   17.31400
      C    C125   -34.51500   34.17600   15.95900
      C    C126   -35.30800   34.98200   14.95100
      O    O127   -36.31300   35.63300   15.28000
      C    C128   -34.90000   32.69300   15.78400
      C    C129   -36.42500   32.48800   15.75300
      O    O130   -37.01100   32.36600   16.84500
      O    O131   -37.03000   32.50000   14.64800
      N    N132   -34.89200   34.87800   13.69400
      C    C133   -35.67500   35.40500   12.61000
      C    C134   -35.15900   34.76200   11.35100
      O    O135   -33.95600   34.85100   11.06000
      C    C136   -35.50600   36.91200   12.51500
      O    O137   -36.16900   37.37200   11.34800
      N    N138   -36.04700   34.09200   10.61000
      C    C139   -35.64900   33.46300    9.33800
      C    C140   -34.50000   32.50300    9.54100
      O    O141   -34.58700   31.63000   10.39800
      N    N142   -33.40900   32.67700    8.78100
      C    C143   -32.23200   31.82100    8.92900
      C    C144   -31.22000   32.30100    9.99400
      O    O145   -30.06700   31.90000    9.94100
      C    C146   -31.50000   31.68700    7.57100
      C    C147   -31.00800   33.03300    7.03400
      O    O148   -31.45400   34.10800    7.48700
      N    N149   -30.11500   32.98900    6.02600
      N    N150   -31.64700   33.14200   10.94000
      C    C151   -30.73200   33.73500   11.90500
      C    C152   -31.11400   33.42400   13.34400
      O    O153   -32.27400   33.62500   13.73800
      C    C154   -30.67000   35.26800   11.70600
      C    C155   -30.12900   35.79300   10.36700
      C    C156   -30.15100   37.32300   10.36200
      C    C157   -28.69900   35.26100   10.15100
      N    N158   -30.17200   32.91200   14.12200
      C    C159   -30.36600   32.89200   15.54700
      C    C160   -29.65700   34.13500   16.09100
      O    O161   -28.58000   34.52400   15.59100
      C    C162   -29.86300   31.58000   16.17400
      N    N163   -30.31600   34.80000   17.03700
      C    C164   -29.82000   36.01600   17.62900
      C    C165   -29.51900   35.66600   19.09600
      O    O166   -30.42700   35.24100   19.83700
      C    C167   -30.85000   37.14800   17.48400
      C    C168   -30.33700   38.41400   18.14900
      C    C169   -31.15900   37.37800   16.01400
      N    N170   -28.24600   35.78100   19.48900
      C    C171   -27.85900   35.41400   20.86300
      C    C172   -27.47100   36.68600   21.57300
      O    O173   -26.77000   37.50000   20.99700
      C    C174   -26.68800   34.41900   20.87200
      C    C175   -26.66400   33.18100   19.96000
      C    C176   -25.61100   32.15700   20.37400
      C    C177   -28.01600   32.54400   19.84500
      N    N178   -27.92900   36.86800   22.80900
      C    C179   -27.51600   38.02800   23.57600
      C    C180   -26.58700   37.59700   24.70100
      O    O181   -26.75100   36.52400   25.31000
      C    C182   -28.71000   38.80900   24.15800
      C    C183   -29.68000   39.41300   23.13300
      C    C184   -29.03400   40.55700   22.30600
      N    N185   -28.41500   41.66300   23.05900
      C    C186   -28.98600   42.86300   23.20500
      N    N187   -30.19400   43.09700   22.69500
      N    N188   -28.37300   43.83000   23.87200
      N    N189   -25.60900   38.45500   24.97500
      C    C190   -24.58300   38.20000   25.97900
      C    C191   -24.44000   39.48500   26.81600
      O    O192   -24.97100   40.54500   26.44900
      C    C193   -23.16400   37.90600   25.32900
      O    O194   -22.67400   39.10900   24.71300
      C    C195   -23.21100   36.83900   24.26400
      N    N196   -23.70900   39.40000   27.95500
      C    C197   -23.35700   40.61900   28.67200
      C    C198   -22.53000   41.56000   27.78300
      O    O199   -21.89500   41.11900   26.82500
      C    C200   -22.53500   40.12600   29.87500
      C    C201   -22.94100   38.64000   30.02500
      C    C202   -23.20800   38.17800   28.62000
      N    N203   -22.54100   42.86800   28.08200
      C    C204   -21.72800   43.74900   27.22200
      C    C205   -20.26300   43.29900   27.14000
      O    O206   -19.65900   43.00000   28.16600
      C    C207   -21.82400   45.10500   27.91700
      C    C208   -23.10800   45.02900   28.73100
      C    C209   -23.25400   43.59500   29.15100
      N    N210   -19.75100   43.19700   25.90900
      C    C211   -18.35600   42.93100   25.64700
      C    C212   -18.07200   41.45800   25.49900
      O    O213   -16.95400   41.09000   25.15300
      N    N214   -19.06400   40.61200   25.72600
      C    C215   -18.75600   39.18800   25.78100
      C    C216   -19.09500   38.42700   24.49900
      O    O217   -18.83700   37.20900   24.42100
      C    C218   -19.43400   38.54300   26.99800
      N    N219   -19.67700   39.11900   23.51300
      C    C220   -20.13800   38.44900   22.28100
      C    C221   -19.00100   37.73000   21.55000
      O    O222   -19.16100   36.57900   21.18400
      C    C223   -20.81500   39.41500   21.35700
      N    N224   -17.87100   38.40600   21.32900
      C    C225   -16.74400   37.76000   20.62200
      C    C226   -16.23900   36.49900   21.32200
      O    O227   -15.86300   35.53400   20.66800
      C    C228   -15.58500   38.73900   20.35800
      C    C229   -15.74300   39.45700   19.05600
      N    N230   -15.36500   38.90300   17.84900
      C    C231   -16.34300   40.63800   18.76200
      C    C232   -15.66600   39.74200   16.87200
      N    N233   -16.28500   40.79000   17.39600
      N    N234   -16.23200   36.52400   22.65700
      C    C235   -15.72900   35.38300   23.40700
      C    C236   -16.64800   34.17800   23.27400
      O    O237   -16.17800   33.06200   23.01700
      C    C238   -15.54900   35.73700   24.88700
      C    C239   -14.77900   34.70000   25.68900
      C    C240   -15.19200   34.32800   26.96400
      C    C241   -13.62400   34.09500   25.15800
      C    C242   -14.47000   33.36700   27.69700
      C    C243   -12.90400   33.16100   25.87000
      C    C244   -13.34300   32.80100   27.13600
      O    O245   -12.61100   31.88600   27.84100
      N    N246   -17.94800   34.38700   23.46500
      C    C247   -18.90900   33.30200   23.18300
      C    C248   -18.86400   32.81600   21.73300
      O    O249   -18.84300   31.58800   21.47100
      C    C250   -20.34600   33.71200   23.54200
      C    C251   -21.42800   32.61500   23.36400
      C    C252   -21.03100   31.21600   24.00000
      C    C253   -22.78900   33.10900   23.82400
      N    N254   -18.91600   33.76000   20.80300
      C    C255   -18.88600   33.43400   19.36500
      C    C256   -17.63900   32.60500   18.98500
      O    O257   -17.71000   31.70000   18.15700
      C    C258   -18.96300   34.69800   18.53500
      N    N259   -16.48900   32.93700   19.57800
      C    C260   -15.28200   32.15900   19.32600
      C    C261   -15.51000   30.67300   19.61200
      O    O262   -15.14800   29.80600   18.80500
      C    C263   -14.10800   32.72700   20.16500
      O    O264   -12.94600   31.95200   19.96800
      N    N265   -16.12500   30.37700   20.76700
      C    C266   -16.34600   28.98500   21.20400
      C    C267   -17.33000   28.25500   20.27900
      O    O268   -17.18200   27.06100   19.97800
      C    C269   -16.88000   28.98600   22.61800
      N    N270   -18.33400   28.98900   19.83500
      C    C271   -19.31400   28.46800   18.88100
      C    C272   -18.58800   28.11600   17.57300
      O    O273   -18.76700   27.00100   17.03700
      C    C274   -20.46600   29.49500   18.62300
      C    C275   -21.30600   29.69800   19.92200
      C    C276   -21.32000   29.04400   17.44000
      C    C277   -22.29600   30.83500   19.87700
      N    N278   -17.73200   29.03000   17.10200
      C    C279   -16.97200   28.79700   15.84100
      C    C280   -16.12200   27.55500   16.01500
      O    O281   -16.06800   26.71300   15.13000
      C    C282   -16.05500   29.97100   15.42900
      C    C283   -16.81800   31.23300   15.00000
      O    O284   -16.23500   32.32500   15.14900
      O    O285   -17.98400   31.16700   14.53200
      N    N286   -15.49800   27.42900   17.18200
      C    C287   -14.57100   26.33200   17.44400
      C    C288   -15.27900   24.96600   17.54500
      O    O289   -14.72000   23.92300   17.15100
      C    C290   -13.63000   26.70600   18.59600
      C    C291   -12.75800   27.96500   18.14800
      C    C292   -11.70600   28.58400   19.11500
      N    N293   -11.03700   29.68200   18.37900
      C    C294    -9.90800   30.33600   18.71200
      N    N295    -9.23000   30.03700   19.82600
      N    N296    -9.45000   31.32200   17.90900
      N    N297   -16.52900   24.99300   18.00700
      C    C298   -17.41300   23.82600   18.05700
      C    C299   -17.76800   23.26300   16.65300
      O    O300   -18.06100   22.05500   16.50400
      C    C301   -18.68300   24.15000   18.87100
      N    N302   -17.73700   24.12800   15.64200
      C    C303   -17.94200   23.75300   14.22200
      C    C304   -19.18900   22.87500   14.01200
      O    O305   -19.11400   21.74100   13.53600
      C    C306   -16.67700   23.09400   13.62700
      N    N307   -20.33400   23.42500   14.39100
      C    C308   -21.59200   22.71100   14.31700
      C    C309   -21.99600   22.57500   12.84700
      O    O310   -21.84000   23.51600   12.07300
      C    C311   -22.65200   23.44100   15.14000
      C    C312   -22.29000   23.61900   16.63400
      C    C313   -23.08400   24.74300   17.29800
      C    C314   -22.44200   22.29900   17.37900
      N    N315   -22.51200   21.39100   12.45700
      C    C316   -22.81700   21.12100   11.05300
      C    C317   -23.85900   22.08400   10.54300
      O    O318   -23.85700   22.42700    9.34900
      C    C319   -23.42400   19.71400   11.08300
      C    C320   -22.95000   19.10600   12.36000
      C    C321   -22.83800   20.24300   13.32600
      N    N322   -24.77700   22.49200   11.41100
      C    C323   -25.88600   23.33300   10.93000
      C    C324   -25.64300   24.82900   11.13300
      O    O325   -26.55000   25.63400   10.95900
      C    C326   -27.23000   22.89200   11.54300
      C    C327   -27.66900   21.45100   11.10500
      C    C328   -27.49000   21.18100    9.57600
      O    O329   -28.10700   21.83800    8.73300
      N    N330   -26.66100   20.19200    9.24300
      N    N331   -24.41900   25.18800   11.51300
      C    C332   -24.02500   26.60000   11.63300
      C    C333   -23.09200   26.95400   10.47100
      O    O334   -22.02000   26.33100   10.30800
      C    C335   -23.31500   26.89100   12.99200
      C    C336   -22.68700   28.32700   12.99400
      C    C337   -24.29500   26.68500   14.15700
      N    N338   -23.49500   27.94200    9.67200
      C    C339   -22.66000   28.41800    8.57200
      C    C340   -21.53300   29.29800    9.10000
      O    O341   -20.39100   29.20600    8.63000
      C    C342   -23.48300   29.09800    7.43300
      C    C343   -22.56400   29.63500    6.32300
      C    C344   -24.45300   28.05900    6.80200
      N    N345   -21.83500   30.11300   10.10800
      C    C346   -20.83700   31.01600   10.67200
      C    C347   -21.49100   31.92800   11.66800
      O    O348   -22.72500   31.89900   11.85200
      N    N349   -20.66800   32.72500   12.34000
      C    C350   -21.16300   33.66600   13.32200
      C    C351   -20.52000   35.01700   13.07500
      O    O352   -19.39500   35.09500   12.57700
      C    C353   -20.82000   33.23700   14.79300
      O    O354   -19.39500   33.35000   15.01200
      C    C355   -21.28600   31.80800   15.09100
      N    N356   -21.23800   36.07500   13.40500
      C    C357   -20.64600   37.40900   13.53500
      C    C358   -21.00200   37.98600   14.91700
      O    O359   -22.17700   37.97100   15.31900
      C    C360   -21.08900   38.38200   12.43400
      C    C361   -20.53500   37.89600   11.08400
      C    C362   -20.60000   39.82300   12.79600
      C    C363   -19.81100   38.88700   10.31400
      N    N364   -19.98000   38.41500   15.65100
      C    C365   -20.16700   38.91400   16.99200
      C    C366   -20.10700   40.43300   16.92200
      O    O367   -19.28800   40.97100   16.16900
      C    C368   -19.05100   38.38800   17.94000
      N    N369   -20.99600   41.10700   17.65100
      C    C370   -20.91300   42.58000   17.86300
      C    C371   -20.31300   42.83200   19.26000
      O    O372   -19.21000   42.32900   19.58300
      N    N373   -21.06200   43.50400   20.12300
      C    C374   -20.60700   43.78600   21.49200
      C    C375   -21.35300   42.93000   22.49900
      O    O376   -20.71800   42.30500   23.35700
      C    C377   -20.74500   45.28500   21.84600
      C    C378   -20.08700   45.62200   23.19400
      O    O379   -20.80300   45.82000   24.17700
      O    O380   -18.84600   45.59400   23.27800
      N    N381   -22.68500   42.85100   22.35300
      C    C382   -23.54700   42.08400   23.24900
      C    C383   -24.51200   41.16600   22.46000
      O    O384   -25.46400   40.62200   23.02300
      C    C385   -24.33000   43.04400   24.18500
      C    C386   -25.23900   44.05500   23.43200
      O    O387   -25.67800   43.83400   22.26200
      O    O388   -25.50900   45.14800   24.01500
      N    N389   -24.28300   41.05300   21.15400
      C    C390   -25.18100   40.30900   20.27500
      C    C391   -24.33500   39.48500   19.30100
      O    O392   -23.32100   39.98000   18.77800
      C    C393   -26.11500   41.26700   19.47900
      O    O394   -26.83900   42.12900   20.37500
      C    C395   -27.08900   40.47700   18.55100
      N    N396   -24.74400   38.22400   19.07200
      C    C397   -24.17400   37.37700   18.03400
      C    C398   -25.26700   36.94400   17.02700
      O    O399   -26.32200   36.44800   17.44400
      C    C400   -23.56600   36.07200   18.63800
      C    C401   -22.51900   36.42400   19.71900
      C    C402   -22.96300   35.19600   17.54600
      C    C403   -22.20200   35.35100   20.65600
      N    N404   -25.01600   37.14200   15.73900
      C    C405   -25.82300   36.47900   14.71200
      C    C406   -25.18000   35.15200   14.37700
      O    O407   -23.98400   35.10100   14.04900
      C    C408   -25.91200   37.30000   13.42700
      C    C409   -26.70700   38.59700   13.49300
      C    C410   -26.82000   39.21500   12.09300
      C    C411   -28.06300   38.35400   14.13900
      N    N412   -25.98200   34.09200   14.43400
      C    C413   -25.54600   32.75000   14.04100
      C    C414   -26.34600   32.35200   12.79900
      O    O415   -27.58900   32.30100   12.84600
      C    C416   -25.80300   31.74100   15.13600
      C    C417   -25.19800   30.38400   14.77000
      C    C418   -25.25300   32.25100   16.47400
      N    N419   -25.64100   32.08100   11.70500
      C    C420   -26.28400   31.88700   10.40900
      C    C421   -26.56700   30.39200   10.26700
      O    O422   -25.64900   29.58500   10.29300
      C    C423   -25.40000   32.37500    9.26000
      C    C424   -26.04300   32.01400    7.91900
      C    C425   -25.12400   33.89400    9.39200
      N    N426   -27.84000   30.03300   10.11400
      C    C427   -28.25800   28.62200   10.01200
      C    C428   -28.01100   28.02900    8.62000
      O    O429   -28.22300   28.69600    7.63100
      C    C430   -29.74500   28.48200   10.39500
      N    N431   -27.55700   26.78100    8.54800
      C    C432   -27.34900   26.12600    7.24600
      C    C433   -28.65900   25.56000    6.74300
      O    O434   -29.30200   24.81500    7.46400
      C    C435   -26.35200   24.97200    7.38200
      C    C436   -25.97100   24.34700    6.04500
      C    C437   -24.90300   23.29300    6.19500
      N    N438   -23.69100   23.81400    6.81300
      C    C439   -22.80400   24.62100    6.23000
      N    N440   -21.73900   25.00200    6.90700
      N    N441   -22.97800   25.05900    4.99000
      N    N442   -29.05300   25.91700    5.51600
      C    C443   -30.30500   25.43900    4.91400
      C    C444   -30.38800   23.90500    5.02100
      O    O445   -29.36800   23.23300    4.85400
      C    C446   -30.40100   25.94300    3.46300
      C    C447   -30.49400   27.52200    3.39100
      C    C448   -29.91100   28.17400    2.10200
      O    O449   -30.54300   29.11900    1.56900
      O    O450   -28.81500   27.76100    1.61800
      N    N451   -31.57000   23.34700    5.38200
      C    C452   -32.82600   23.99900    5.68900
      C    C453   -33.07600   24.26300    7.18800
      O    O454   -34.23300   24.56900    7.56700
      C    C455   -33.85100   22.97100    5.19300
      C    C456   -33.23200   21.68100    5.63300
      C    C457   -31.71600   21.87700    5.51300
      N    N458   -32.05000   24.11400    8.03300
      C    C459   -32.15500   24.48600    9.45800
      C    C460   -32.58800   25.94100    9.57400
      O    O461   -32.08500   26.77500    8.83200
      C    C462   -30.82200   24.30700   10.21100
      O    O463   -30.40300   22.94300   10.11200
      C    C464   -30.97400   24.67000   11.70900
      N    N465   -33.53300   26.23200   10.47500
      C    C466   -33.97700   27.61000   10.74000
      C    C467   -33.25400   28.24300   11.93600
      O    O468   -32.62600   27.54500   12.72800
      C    C469   -35.48800   27.68600   11.04100
      O    O470   -35.74500   27.08000   12.32900
      C    C471   -36.29300   26.97400    9.94000
      N    N472   -33.33900   29.56300   12.05600
      C    C473   -32.79900   30.23500   13.23300
      C    C474   -33.48200   29.78100   14.51800
      O    O475   -32.83600   29.66000   15.56000
      N    N476   -34.79600   29.55700   14.46000
      C    C477   -35.54300   29.08400   15.64500
      C    C478   -34.98200   27.77600   16.14900
      O    O479   -34.83200   27.58900   17.36300
      C    C480   -37.01700   28.94800   15.35400
      N    N481   -34.63700   26.88500   15.22200
      C    C482   -34.05500   25.58500   15.55200
      C    C483   -32.67100   25.70200   16.16800
      O    O484   -32.33800   24.98300   17.15700
      C    C485   -33.99200   24.69700   14.31900
      C    C486   -35.39300   24.20700   13.88400
      C    C487   -35.37000   23.39200   12.60300
      O    O488   -34.64600   23.69400   11.65100
      N    N489   -36.22200   22.36000   12.56300
      N    N490   -31.85800   26.60100   15.61000
      C    C491   -30.54500   26.88000   16.21300
      C    C492   -30.71700   27.42900   17.60600
      O    O493   -30.07700   26.94400   18.54000
      C    C494   -29.74900   27.88500   15.39400
      C    C495   -29.08200   27.41600   14.13200
      C    C496   -28.19400   28.58000   13.66300
      C    C497   -28.25900   26.10000   14.34500
      N    N498   -31.58600   28.44400   17.75600
      C    C499   -31.88400   28.97900   19.09000
      C    C500   -32.25300   27.89800   20.11500
      O    O501   -31.73300   27.89600   21.23000
      C    C502   -32.96800   30.07100   19.03000
      N    N503   -33.14300   26.97900   19.75500
      C    C504   -33.52100   25.90600   20.68600
      C    C505   -32.32700   25.00800   21.01100
      O    O506   -32.18000   24.56200   22.15100
      N    N507   -31.46300   24.75700   20.02000
      C    C508   -30.25400   23.95100   20.24000
      C    C509   -29.33000   24.60900   21.27800
      O    O510   -28.81700   23.92400   22.19300
      C    C511   -29.53000   23.65000   18.91600
      C    C512   -28.13800   23.06500   19.08900
      S    S513   -27.05400   23.44300   17.69900
      C    C514   -26.84000   25.21700   17.79400
      N    N515   -29.14400   25.93000   21.17400
      C    C516   -28.34300   26.63400   22.15900
      C    C517   -28.95700   26.56700   23.57100
      O    O518   -28.23700   26.37500   24.57100
      C    C519   -28.06600   28.08000   21.70800
      C    C520   -27.11000   28.17500   20.54100
      C    C521   -27.53800   28.64700   19.30700
      C    C522   -25.78500   27.76300   20.67200
      C    C523   -26.64500   28.72400   18.21100
      C    C524   -24.89200   27.85100   19.57700
      C    C525   -25.33000   28.33400   18.35900
      N    N526   -30.27400   26.68600   23.66300
      C    C527   -30.93700   26.57200   24.96200
      C    C528   -30.72500   25.16000   25.50800
      O    O529   -30.57600   24.97500   26.72300
      C    C530   -32.42000   26.87300   24.84800
      C    C531   -32.75600   28.28800   24.42000
      C    C532   -32.48200   29.31200   25.49600
      O    O533   -32.56300   30.50600   25.16300
      O    O534   -32.20300   28.93600   26.66900
      N    N535   -30.67000   24.19000   24.59900
      C    C536   -30.54900   22.77100   24.94600
      C    C537   -29.18000   22.42500   25.49600
      O    O538   -29.06100   21.60800   26.39100
      C    C539   -30.82100   21.87700   23.73700
      C    C540   -32.32100   21.77400   23.37100
      O    O541   -33.22300   22.29300   24.05600
      N    N542   -32.57500   21.09600   22.25900
      N    N543   -28.15300   23.06700   24.96000
      C    C544   -26.75900   22.78500   25.31700
      C    C545   -26.34500   23.47500   26.59300
      O    O546   -25.48400   22.99200   27.30800
      C    C547   -25.83200   23.25300   24.19800
      C    C548   -25.34600   22.31300   23.10500
      C    C549   -25.92600   20.87500   23.18100
      C    C550   -25.55800   22.99600   21.77000
      N    N551   -26.94800   24.62800   26.84800
      C    C552   -26.68200   25.42300   28.02000
      C    C553   -27.00500   24.63900   29.29700
      O    O554   -27.97200   23.87300   29.33800
      C    C555   -27.55400   26.66600   27.93400
      C    C556   -27.51300   27.50800   29.13000
      C    C557   -28.64000   28.53100   29.11800
      N    N558   -28.66500   29.07500   30.45400
      C    C559   -29.55600   28.78100   31.38500
      N    N560   -30.59300   27.96700   31.14000
      N    N561   -29.40400   29.33100   32.57500
      O    O562   -26.32200   24.77500   30.31300
