# CIF file generated by openbabel 2.3.2, see http://openbabel.sf.net
data_I
_chemical_name_common '../proteins/pdb/3BUE.pdb'
_cell_length_a 53.219
_cell_length_b 57.242
_cell_length_c 57.328
_cell_angle_alpha 66.19
_cell_angle_beta 62.21
_cell_angle_gamma 82
_space_group_name_H-M_alt 'P 1'
_space_group_name_Hall 'P 1'
loop_
    _symmetry_equiv_pos_as_xyz
    'x,y,z'
loop_
    _atom_site_type_symbol
    _atom_site_label
    _atom_site_Cartn_x
    _atom_site_Cartn_y
    _atom_site_Cartn_z
      N    N1    40.61900   69.17300   -7.24300
      C    C2    41.65500   68.29300   -6.62300
      C    C3    42.75900   68.07600   -7.65100
      O    O4    43.90900   68.51700   -7.44800
      N    N5    42.39900   67.43500   -8.76600
      C    C6    43.29300   67.29000   -9.90700
      C    C7    43.65400   68.63100  -10.57800
      O    O8    44.78200   68.80400  -11.01200
      C    C9    42.74500   66.29100  -10.96800
      O    O10    41.48300   66.77100  -11.46300
      C    C11    42.60100   64.87200  -10.38400
      N    N12    42.70400   69.56400  -10.66000
      C    C13    42.97100   70.89200  -11.24300
      C    C14    43.98900   71.74300  -10.45900
      O    O15    44.88800   72.36400  -11.04700
      C    C16    41.66100   71.65200  -11.49100
      C    C17    40.89300   71.09900  -12.70600
      O    O18    41.56100   70.51500  -13.62900
      O    O19    39.63200   71.23000  -12.73500
      N    N20    43.87000   71.71700   -9.13400
      C    C21    44.87600   72.26500   -8.23200
      C    C22    46.25800   71.60500   -8.35900
      O    O23    47.26500   72.29600   -8.47900
      C    C24    44.38200   72.20700   -6.80100
      C    C25    45.35800   72.84400   -5.82200
      C    C26    44.70500   73.05400   -4.47600
      N    N27    45.72700   73.42400   -3.50800
      C    C28    46.35100   72.55500   -2.71800
      N    N29    46.02900   71.26400   -2.73000
      N    N30    47.29400   72.97900   -1.89000
      N    N31    46.31400   70.27000   -8.38800
      C    C32    47.58500   69.58000   -8.59500
      C    C33    48.21100   70.00100   -9.92400
      O    O34    49.41000   70.32100  -10.00400
      C    C35    47.38200   68.05600   -8.56400
      C    C36    48.61700   67.28400   -8.98400
      S    S37    48.37200   65.53200   -9.43300
      C    C38    47.57900   65.72100  -11.04400
      N    N39    47.39800   69.98100  -10.98700
      C    C40    47.83700   70.41300  -12.31800
      C    C41    48.40300   71.84300  -12.28500
      O    O42    49.43800   72.08300  -12.87400
      C    C43    46.70200   70.34700  -13.26800
      N    N44    47.73200   72.78000  -11.60800
      C    C45    48.26900   74.17000  -11.46100
      C    C46    49.60600   74.17500  -10.72800
      O    O47    50.55800   74.82100  -11.15900
      C    C48    47.27000   75.12400  -10.76800
      C    C49    47.88600   76.50300  -10.31600
      C    C50    46.88600   77.45100   -9.57600
      N    N51    46.41600   76.95700   -8.26500
      C    C52    47.04700   77.17000   -7.09500
      N    N53    48.19500   77.87000   -7.07000
      N    N54    46.52400   76.68700   -5.94600
      N    N55    49.69800   73.41500   -9.63500
      C    C56    50.92500   73.39700   -8.86200
      C    C57    52.11000   72.78100   -9.58200
      O    O58    53.22700   73.25100   -9.38200
      C    C59    50.69500   72.78000   -7.48600
      C    C60    49.87900   73.77500   -6.63600
      C    C61    49.29400   73.13000   -5.40200
      C    C62    50.73900   74.99000   -6.29700
      N    N63    51.88600   71.75000  -10.41000
      C    C64    52.96100   71.10300  -11.13900
      C    C65    53.52500   72.07500  -12.17400
      O    O66    54.72200   72.15200  -12.37200
      C    C67    52.46800   69.82200  -11.82500
      C    C68    52.12100   68.58800  -10.97300
      C    C69    51.21100   67.64300  -11.72700
      C    C70    53.40800   67.86400  -10.57200
      N    N71    52.65300   72.82800  -12.82900
      C    C72    53.12500   73.87700  -13.72200
      C    C73    54.02900   74.90200  -13.02500
      O    O74    54.94500   75.42900  -13.65600
      N    N75    53.79100   75.19600  -11.75000
      C    C76    54.58600   76.21100  -11.02400
      C    C77    55.82000   75.71400  -10.30000
      O    O78    56.77500   76.50100  -10.08600
      C    C79    53.75200   76.83800   -9.91400
      C    C80    52.50700   77.58200  -10.32700
      C    C81    51.90400   78.31600   -9.12200
      O    O82    50.65600   78.47700   -9.07300
      O    O83    52.70200   78.72700   -8.22300
      N    N84    55.76900   74.45100   -9.83600
      C    C85    56.71600   73.94000   -8.83400
      C    C86    57.57200   72.77300   -9.32800
      O    O87    58.65200   72.51500   -8.79800
      C    C88    55.96600   73.58400   -7.51700
      C    C89    55.28600   74.76800   -6.79600
      C    C90    54.49300   74.32000   -5.54700
      C    C91    56.29100   75.94200   -6.41300
      N    N92    57.13600   72.10000  -10.39100
      C    C93    57.85400   70.95500  -10.87600
      C    C94    59.08400   71.42400  -11.65600
      O    O95    58.96600   72.05400  -12.69700
      C    C96    56.93300   70.06200  -11.73800
      C    C97    57.37800   68.62100  -11.94300
      C    C98    57.64700   67.93200  -10.57100
      C    C99    56.39400   67.83900  -12.77100
      N    N100    60.26200   71.09500  -11.16500
      C    C101    61.48700   71.45600  -11.86100
      C    C102    62.03000   70.34800  -12.79500
      O    O103    62.46800   70.64800  -13.91300
      C    C104    62.57500   71.96600  -10.87600
      C    C105    63.88100   72.19600  -11.62900
      C    C106    62.12900   73.31100  -10.19900
      N    N107    62.06000   69.08100  -12.35200
      C    C108    62.41800   67.99100  -13.27200
      C    C109    61.67400   66.71100  -12.83900
      O    O110    61.18600   66.65700  -11.73100
      C    C111    63.94200   67.77300  -13.26300
      O    O112    64.40500   67.16300  -12.05200
      N    N113    61.56300   65.70400  -13.71500
      C    C114    60.99900   64.39100  -13.34400
      C    C115    62.05100   63.35400  -13.70300
      O    O116    62.85700   63.55500  -14.61800
      C    C117    59.72400   64.04200  -14.13600
      O    O118    60.02200   64.08400  -15.53700
      C    C119    58.59600   65.04600  -13.87100
      N    N120    62.05800   62.25400  -12.96900
      C    C121    62.98500   61.14600  -13.21300
      C    C122    62.27200   59.94300  -12.68000
      O    O123    61.09900   60.05200  -12.21800
      C    C124    64.36400   61.39100  -12.53600
      C    C125    65.49100   60.75000  -13.29400
      O    O126    65.19900   59.81100  -14.05700
      O    O127    66.69500   61.12000  -13.12500
      N    N128    62.91400   58.78700  -12.77300
      C    C129    62.23700   57.53600  -12.37800
      C    C130    63.20600   56.37500  -12.24000
      O    O131    64.32100   56.41700  -12.76500
      C    C132    61.26000   57.12200  -13.44500
      C    C133    62.01200   56.48000  -14.67700
      O    O134    62.37700   57.22300  -15.59300
      O    O135    62.30800   55.26700  -14.67200
      N    N136    62.72800   55.32900  -11.55800
      C    C137    63.42500   54.04400  -11.45000
      C    C138    62.40100   53.04900  -10.92600
      O    O139    61.79200   53.30300   -9.88600
      C    C140    64.63900   54.16400  -10.51200
      O    O141    65.41700   52.95700  -10.45200
      N    N142    62.14200   51.96000  -11.66800
      C    C143    61.29100   50.88400  -11.15800
      C    C144    59.89400   51.43600  -10.96700
      O    O145    59.38400   52.11500  -11.84800
      N    N146    59.27700   51.22200   -9.80500
      C    C147    57.94700   51.73400   -9.56100
      C    C148    57.95600   53.13800   -8.98300
      O    O149    56.91400   53.58500   -8.45800
      C    C150    57.17200   50.81600   -8.59800
      C    C151    57.89600   50.62600   -7.22400
      O    O152    59.11000   50.91300   -7.06000
      N    N153    57.15900   50.06000   -6.25800
      N    N154    59.09600   53.82800   -9.06000
      C    C155    59.22300   55.17900   -8.47600
      C    C156    59.37600   56.29800   -9.51300
      O    O157    60.22900   56.18000  -10.37200
      C    C158    60.38700   55.21500   -7.49200
      C    C159    60.29200   54.23900   -6.29700
      C    C160    61.58000   54.31900   -5.45000
      C    C161    59.09700   54.56200   -5.43000
      N    N162    58.52600   57.34800   -9.44600
      C    C163    58.84100   58.63200  -10.08700
      C    C164    59.45800   59.57700   -9.05400
      O    O165    59.00200   59.66000   -7.90100
      C    C166    57.61600   59.27500  -10.76700
      N    N167    60.54800   60.23100   -9.44300
      C    C168    61.23300   61.15000   -8.56400
      C    C169    61.00800   62.54000   -9.17100
      O    O170    61.27300   62.72800  -10.35400
      C    C171    62.75100   60.86300   -8.52900
      C    C172    63.49300   61.92100   -7.65100
      C    C173    63.01100   59.42900   -8.08500
      N    N174    60.47800   63.47700   -8.37200
      C    C175    60.10300   64.84000   -8.83600
      C    C176    60.88200   65.85200   -8.03800
      O    O177    61.03200   65.67800   -6.82100
      C    C178    58.61000   65.09500   -8.58400
      C    C179    57.49400   64.18800   -9.10400
      C    C180    56.16400   64.80500   -8.72900
      C    C181    57.54500   64.00700  -10.58300
      N    N182    61.40700   66.87600   -8.69900
      C    C183    62.27400   67.89200   -8.05700
      C    C184    61.54800   69.19000   -8.16000
      O    O185    60.91700   69.48100   -9.18600
      C    C186    63.62200   68.02600   -8.75900
      C    C187    64.42600   66.68900   -8.85100
      C    C188    64.94500   66.19800   -7.44900
      N    N189    65.68800   67.21000   -6.65000
      C    C190    67.02000   67.22100   -6.48700
      N    N191    67.79000   66.28900   -7.06900
      N    N192    67.60000   68.16400   -5.74000
      N    N193    61.56300   69.93400   -7.05900
      C    C194    60.92000   71.23400   -6.97000
      C    C195    61.99400   72.21600   -6.48000
      O    O196    63.10200   71.78600   -6.16500
      C    C197    59.81800   71.21300   -5.93000
      O    O198    60.44400   71.20900   -4.65000
      C    C199    58.89700   69.96900   -6.04800
      N    N200    61.67400   73.53600   -6.40300
      C    C201    62.64400   74.39500   -5.71300
      C    C202    62.68700   74.03800   -4.22200
      O    O203    61.70000   73.47400   -3.68400
      C    C204    62.09500   75.81200   -5.91800
      C    C205    61.09700   75.69100   -7.03400
      C    C206    60.51800   74.30800   -6.88600
      N    N207    63.82200   74.33800   -3.54700
      C    C208    63.88300   74.14000   -2.10400
      C    C209    62.67300   74.76100   -1.40900
      O    O210    62.11600   75.77300   -1.84900
      C    C211    65.21500   74.83000   -1.67900
      C    C212    65.69400   75.60700   -2.91200
      C    C213    65.09400   74.87300   -4.08900
      N    N214    62.24000   74.08400   -0.36300
      C    C215    61.01500   74.43100    0.33500
      C    C216    59.66600   74.25700   -0.33600
      O    O217    58.69600   74.63900    0.26200
      N    N218    59.59100   73.68200   -1.53800
      C    C219    58.29700   73.47000   -2.22800
      C    C220    57.76800   72.00800   -2.26200
      O    O221    56.60200   71.76100   -2.56800
      C    C222    58.36900   74.05000   -3.64700
      N    N223    58.62200   71.04100   -1.94000
      C    C224    58.26700   69.60600   -2.09500
      C    C225    57.06300   69.11100   -1.28500
      O    O226    56.22000   68.39600   -1.83600
      C    C227    59.47300   68.71700   -1.85300
      N    N228    56.98100   69.43500    0.01800
      C    C229    55.82900   68.95300    0.82700
      C    C230    54.54700   69.55800    0.29600
      O    O231    53.49800   68.90800    0.30200
      C    C232    56.00500   69.18000    2.36500
      C    C233    54.93300   68.53900    3.23500
      N    N234    54.09000   67.51900    2.80000
      C    C235    54.57700   68.77300    4.53400
      C    C236    53.26300   67.16900    3.78100
      N    N237    53.53800   67.91200    4.84300
      N    N238    54.63600   70.79800   -0.18400
      C    C239    53.48000   71.51000   -0.70300
      C    C240    52.93300   70.87200   -1.98300
      O    O241    51.71000   70.72900   -2.13600
      C    C242    53.81100   72.99900   -0.96100
      C    C243    52.57500   73.83100   -1.30200
      C    C244    51.50700   73.96600   -0.40100
      C    C245    52.48700   74.50700   -2.51800
      C    C246    50.38000   74.75600   -0.71900
      C    C247    51.36600   75.30600   -2.83600
      C    C248    50.33000   75.41300   -1.93100
      O    O249    49.23300   76.17800   -2.27700
      N    N250    53.83200   70.56800   -2.92400
      C    C251    53.44100   69.88100   -4.16200
      C    C252    52.95500   68.43800   -3.83700
      O    O253    51.94600   68.00600   -4.37200
      C    C254    54.57600   69.93600   -5.23700
      C    C255    54.34700   69.13600   -6.54800
      C    C256    53.10800   69.70400   -7.19900
      C    C257    55.55000   69.09500   -7.54700
      N    N258    53.65800   67.73800   -2.93900
      C    C259    53.29500   66.34500   -2.53500
      C    C260    51.89400   66.23300   -1.90400
      O    O261    51.16800   65.27800   -2.20900
      C    C262    54.37700   65.70000   -1.58700
      N    N263    51.49000   67.20000   -1.07500
      C    C264    50.13600   67.14400   -0.53900
      C    C265    49.10400   67.35900   -1.61000
      O    O266    48.04800   66.77900   -1.54500
      C    C267    49.90500   68.18900    0.54000
      O    O268    51.13800   68.77400    0.87900
      N    N269    49.38700   68.23100   -2.57800
      C    C270    48.49500   68.42400   -3.70500
      C    C271    48.39700   67.14500   -4.56600
      O    O272    47.34600   66.81400   -5.11700
      C    C273    48.99700   69.60600   -4.56400
      N    N274    49.50500   66.45300   -4.74200
      C    C275    49.43900   65.16300   -5.45900
      C    C276    48.53600   64.20000   -4.67100
      O    O277    47.69900   63.53900   -5.26500
      C    C278    50.83200   64.57300   -5.77500
      C    C279    51.60700   65.54400   -6.70200
      C    C280    50.70700   63.13700   -6.40300
      C    C281    53.04700   65.10800   -7.04100
      N    N282    48.67000   64.17800   -3.33800
      C    C283    47.88200   63.26100   -2.50000
      C    C284    46.41700   63.55700   -2.60600
      O    O285    45.60100   62.66000   -2.88700
      C    C286    48.28300   63.36000   -1.04300
      C    C287    49.58600   62.69200   -0.76600
      O    O288    50.15000   62.01500   -1.66300
      O    O289    50.08500   62.87300    0.35900
      N    N290    46.08900   64.82800   -2.38800
      C    C291    44.70600   65.26800   -2.45300
      C    C292    44.04500   65.03700   -3.81000
      O    O293    42.81900   64.97800   -3.86000
      C    C294    44.56400   66.73300   -2.03700
      C    C295    45.06500   67.05000   -0.61700
      C    C296    44.90400   68.56400   -0.34100
      N    N297    43.50200   68.98500   -0.55100
      C    C298    42.53200   68.86900    0.36600
      N    N299    42.81700   68.36900    1.57100
      N    N300    41.28200   69.25900    0.08500
      N    N301    44.81900   64.94300   -4.89600
      C    C302    44.26300   64.57000   -6.22000
      C    C303    43.88300   63.07900   -6.27200
      O    O304    43.14600   62.66500   -7.14800
      C    C305    45.23300   64.89000   -7.34100
      N    N306    44.40400   62.28100   -5.35000
      C    C307    44.16900   60.82100   -5.32500
      C    C308    44.11600   60.15100   -6.70900
      O    O309    43.05700   59.60700   -7.09700
      C    C310    42.90400   60.49400   -4.52400
      N    N311    45.22600   60.18700   -7.45800
      C    C312    45.24900   59.54000   -8.76300
      C    C313    45.23100   58.03700   -8.57700
      O    O314    45.89700   57.53000   -7.69200
      C    C315    46.47400   59.95100   -9.58600
      C    C316    46.80600   61.45700   -9.73200
      C    C317    48.16000   61.54900  -10.44700
      C    C318    45.68600   62.21900  -10.50700
      N    N319    44.48100   57.31600   -9.43100
      C    C320    44.31000   55.85700   -9.32300
      C    C321    45.64500   55.13100   -9.40900
      O    O322    45.82100   54.06000   -8.79300
      C    C323    43.45700   55.49400  -10.56300
      C    C324    42.77900   56.72100  -10.94300
      C    C325    43.71600   57.87000  -10.56200
      N    N326    46.59400   55.71800  -10.12800
      C    C327    47.85800   55.04900  -10.34000
      C    C328    48.94600   55.39500   -9.31400
      O    O329    50.08000   54.97800   -9.46100
      C    C330    48.36600   55.34100  -11.76400
      C    C331    47.38800   54.95800  -12.85700
      C    C332    46.35300   56.08900  -13.21700
      O    O333    46.33500   57.20000  -12.62100
      N    N334    45.48000   55.78100  -14.17900
      N    N335    48.61000   56.18000   -8.29400
      C    C336    49.59600   56.60800   -7.31000
      C    C337    49.25300   55.93700   -5.98300
      O    O338    48.14700   56.05000   -5.52000
      C    C339    49.59900   58.16200   -7.14900
      C    C340    50.35300   58.60900   -5.90400
      C    C341    50.19500   58.78000   -8.36200
      N    N342    50.20800   55.21600   -5.40700
      C    C343    50.02000   54.57200   -4.09400
      C    C344    50.28000   55.57500   -2.96700
      O    O345    49.61400   55.53700   -1.91500
      C    C346    50.93400   53.34500   -3.98800
      C    C347    50.87000   52.69600   -2.57300
      C    C348    50.46900   52.33100   -5.02800
      N    N349    51.21200   56.49100   -3.19900
      C    C350    51.55200   57.49400   -2.22600
      C    C351    52.79600   58.23200   -2.61800
      O    O352    53.41100   57.91600   -3.64700
      N    N353    53.13200   59.22000   -1.78000
      C    C354    54.20000   60.16000   -1.96100
      C    C355    54.89900   60.36900   -0.64000
      O    O356    54.26900   60.32800    0.42100
      C    C357    53.67900   61.55500   -2.44000
      O    O358    52.84600   62.10400   -1.41400
      C    C359    52.82700   61.45600   -3.74700
      N    N360    56.20700   60.59300   -0.69600
      C    C361    56.93100   61.16000    0.43300
      C    C362    57.76100   62.32400   -0.09700
      O    O363    58.45700   62.18000   -1.10200
      C    C364    57.93800   60.16200    1.15600
      C    C365    57.22800   59.15300    2.08200
      C    C366    58.78200   60.93700    2.15400
      C    C367    56.50800   58.09400    1.35300
      N    N368    57.75000   63.42900    0.64800
      C    C369    58.48200   64.61900    0.28000
      C    C370    59.68300   64.82800    1.20500
      O    O371    59.60300   64.56100    2.38900
      C    C372    57.58700   65.78800    0.32200
      N    N373    60.80900   65.21900    0.60800
      C    C374    61.96000   65.80800    1.32400
      C    C375    61.83300   67.32300    1.25700
      O    O376    60.72800   67.85800    1.29500
      N    N377    62.94100   68.02800    1.12600
      C    C378    62.88600   69.48400    0.95900
      C    C379    62.59200   69.89500   -0.49800
      O    O380    61.79500   70.79800   -0.74700
      C    C381    64.19700   70.10900    1.45900
      C    C382    64.28000   71.59100    1.19100
      O    O383    63.55600   72.34200    1.87600
      O    O384    65.05800   72.00500    0.29300
      N    N385    63.24900   69.24900   -1.46200
      C    C386    63.07600   69.61300   -2.85800
      C    C387    62.91600   68.40300   -3.78400
      O    O388    63.11000   68.51100   -4.99900
      C    C389    64.18700   70.56200   -3.30900
      C    C390    65.59200   69.95100   -3.23600
      O    O391    65.78200   68.74300   -2.92500
      O    O392    66.54000   70.70900   -3.55100
      N    N393    62.52500   67.26700   -3.19000
      C    C394    62.45100   65.99400   -3.88600
      C    C395    61.14900   65.31700   -3.44300
      O    O396    60.80000   65.34400   -2.24600
      C    C397    63.64500   65.05300   -3.54400
      O    O398    64.89300   65.67600   -3.85100
      C    C399    63.57900   63.72800   -4.34200
      N    N400    60.40900   64.76600   -4.39600
      C    C401    59.28300   63.89700   -4.04000
      C    C402    59.45900   62.51100   -4.62400
      O    O403    59.87300   62.38700   -5.78200
      C    C404    57.90200   64.48900   -4.46000
      C    C405    57.73600   65.93100   -3.98100
      C    C406    56.74000   63.66600   -3.90900
      C    C407    56.74300   66.68200   -4.88400
      N    N408    59.13800   61.47800   -3.82900
      C    C409    59.05400   60.10100   -4.34600
      C    C410    57.63800   59.75000   -4.49300
      O    O411    56.85800   59.86600   -3.53700
      C    C412    59.64100   59.06900   -3.40800
      C    C413    61.11300   58.93600   -3.20900
      C    C414    61.19000   57.51000   -2.76100
      C    C415    61.88500   59.15600   -4.51900
      N    N416    57.26500   59.35200   -5.68500
      C    C417    55.88300   59.04800   -5.95400
      C    C418    55.84000   57.57800   -6.22900
      O    O419    56.51500   57.12000   -7.14700
      C    C420    55.35100   59.85900   -7.17900
      C    C421    53.88600   59.63700   -7.34100
      C    C422    55.64900   61.39800   -6.97500
      N    N423    55.06300   56.84200   -5.44100
      C    C424    54.95200   55.39400   -5.64900
      C    C425    53.86600   55.03200   -6.66600
      O    O426    52.71600   55.34500   -6.49000
      C    C427    54.76200   54.65800   -4.30800
      C    C428    54.76700   53.18800   -4.52400
      C    C429    55.89300   55.04100   -3.35400
      N    N430    54.26800   54.41300   -7.76900
      C    C431    53.32500   53.97800   -8.79300
      C    C432    52.59300   52.67000   -8.41500
      O    O433    53.19900   51.78000   -7.85100
      C    C434    54.08300   53.77600  -10.13900
      N    N435    51.31800   52.56400   -8.77000
      C    C436    50.53000   51.37900   -8.53300
      C    C437    50.73700   50.35000   -9.67900
      O    O438    50.42100   50.65800  -10.83600
      C    C439    49.04400   51.79800   -8.41100
      C    C440    48.11400   50.64500   -8.04500
      C    C441    46.65600   51.01800   -7.80300
      N    N442    46.51500   52.05400   -6.76200
      C    C443    46.73900   51.86000   -5.46700
      N    N444    47.11700   50.66400   -5.01600
      N    N445    46.63000   52.87500   -4.62000
      N    N446    51.33000   49.17900   -9.37300
      C    C447    51.41200   48.05600  -10.30400
      C    C448    50.11300   47.97900  -11.18300
      O    O449    48.99400   48.15600  -10.68400
      C    C450    51.67100   46.75300   -9.52400
      C    C451    52.96300   46.77700   -8.57100
      C    C452    52.90300   45.79500   -7.30500
      O    O453    53.83600   44.96800   -7.13100
      O    O454    51.93800   45.86700   -6.45800
      N    N455    50.25000   47.78900  -12.51300
      C    C456    51.45100   47.67600  -13.34000
      C    C457    51.95900   49.00100  -13.94200
      O    O458    52.87200   48.97500  -14.73200
      C    C459    50.98400   46.76000  -14.45900
      C    C460    49.57400   47.22700  -14.72500
      C    C461    49.02700   47.60800  -13.32500
      N    N462    51.40200   50.14500  -13.55200
      C    C463    52.03300   51.43400  -13.88300
      C    C464    53.49000   51.50300  -13.38600
      O    O465    53.80200   51.06000  -12.29600
      C    C466    51.24900   52.57300  -13.29200
      O    O467    49.88700   52.35500  -13.61700
      C    C468    51.73100   53.97200  -13.83100
      N    N469    54.38500   52.00600  -14.22000
      C    C470    55.78000   52.13600  -13.84300
      C    C471    56.05800   53.60200  -13.41400
      O    O472    55.29500   54.50700  -13.71700
      C    C473    56.66400   51.80600  -15.02700
      O    O474    56.60000   52.89700  -15.93900
      C    C475    56.21400   50.47400  -15.76800
      N    N476    57.16000   53.82600  -12.73500
      C    C477    57.58100   55.17500  -12.39500
      C    C478    57.86600   56.03100  -13.62000
      O    O479    57.63900   57.22900  -13.57800
      N    N480    58.38700   55.41800  -14.70000
      C    C481    58.65600   56.15500  -15.93300
      C    C482    57.34300   56.66000  -16.50200
      O    O483    57.26700   57.74800  -17.01300
      C    C484    59.37000   55.25000  -16.97800
      N    N485    56.28100   55.88600  -16.39500
      C    C486    55.01900   56.34700  -16.92600
      C    C487    54.47900   57.48600  -16.09000
      O    O488    53.92100   58.45900  -16.64600
      C    C489    54.01800   55.20800  -16.95600
      C    C490    54.41300   54.11200  -17.95000
      C    C491    53.35200   53.06500  -17.99400
      O    O492    53.00100   52.53700  -16.98500
      N    N493    52.78900   52.80800  -19.16200
      N    N494    54.57900   57.38200  -14.76000
      C    C495    54.05000   58.47900  -13.90300
      C    C496    54.81300   59.76700  -14.17300
      O    O497    54.19100   60.82100  -14.37100
      C    C498    54.18500   58.19400  -12.42900
      C    C499    53.31300   57.23700  -11.68100
      C    C500    53.74000   57.31900  -10.24800
      C    C501    51.89500   57.63800  -11.84700
      N    N502    56.14500   59.65800  -14.20000
      C    C503    57.03800   60.77600  -14.51200
      C    C504    56.72400   61.48500  -15.83200
      O    O505    56.62600   62.70500  -15.87300
      C    C506    58.47200   60.31300  -14.47400
      N    N507    56.54500   60.72100  -16.90700
      C    C508    56.15700   61.27300  -18.17900
      C    C509    54.80300   61.94900  -18.10300
      O    O510    54.60600   63.00400  -18.70000
      N    N511    53.84800   61.36500  -17.39000
      C    C512    52.56600   62.06000  -17.13800
      C    C513    52.71600   63.39800  -16.36800
      O    O514    52.11000   64.41100  -16.74800
      C    C515    51.61100   61.15800  -16.36200
      C    C516    50.34000   61.86400  -15.95000
      S    S517    49.19800   60.87800  -14.97900
      C    C518    50.09200   60.83100  -13.37800
      N    N519    53.43200   63.39000  -15.23700
      C    C520    53.69000   64.64300  -14.51000
      C    C521    54.44300   65.67500  -15.37000
      O    O522    54.17100   66.86800  -15.30000
      C    C523    54.48800   64.36800  -13.23000
      C    C524    53.68900   63.64300  -12.15200
      C    C525    52.46300   64.13000  -11.73100
      C    C526    54.17200   62.48400  -11.59400
      C    C527    51.73000   63.47400  -10.72000
      C    C528    53.46500   61.79800  -10.58400
      C    C529    52.23600   62.29300  -10.16400
      N    N530    55.38900   65.19500  -16.16900
      C    C531    56.22700   66.06200  -17.00600
      C    C532    55.32600   66.85800  -17.99900
      O    O533    55.41000   68.07800  -18.09500
      C    C534    57.27200   65.16700  -17.67300
      C    C535    58.26700   65.77900  -18.64600
      C    C536    59.20600   66.77800  -18.00000
      O    O537    59.79700   66.47300  -16.93600
      O    O538    59.33200   67.88300  -18.57400
      N    N539    54.38300   66.16300  -18.64300
      C    C540    53.46900   66.75100  -19.63700
      C    C541    52.35300   67.58300  -19.04200
      O    O542    51.49700   68.08600  -19.76700
      C    C543    52.87400   65.62400  -20.49500
      C    C544    53.90600   64.98800  -21.40000
      O    O545    54.47000   65.65800  -22.25600
      N    N546    54.14800   63.69700  -21.23000
      N    N547    52.31700   67.70400  -17.72100
      C    C548    51.32100   68.55500  -17.08000
      C    C549    51.96100   69.86900  -16.62300
      O    O550    51.28400   70.74100  -16.07500
      C    C551    50.65900   67.84900  -15.88400
      C    C552    49.48700   66.89100  -16.03200
      C    C553    49.34200   66.16200  -14.70200
      C    C554    48.19000   67.57300  -16.41500
      N    N555    53.26000   70.02400  -16.83800
      C    C556    53.80500   71.37000  -16.72200
      C    C557    53.34000   72.15500  -17.96600
      O    O558    53.59500   71.80800  -19.12700
      C    C559    55.31100   71.36600  -16.63600
      C    C560    55.87900   70.24900  -15.84500
      C    C561    57.20400   69.87500  -16.44700
      N    N562    58.29700   70.40800  -15.66000
      C    C563    59.51800   70.61400  -16.12300
      N    N564    59.81500   70.36200  -17.40100
      N    N565    60.43500   71.10100  -15.30800
      O    O566    52.61400   73.13800  -17.85500
