# CIF file generated by openbabel 2.3.2, see http://openbabel.sf.net
data_I
_chemical_name_common '../proteins/pdb/3C57.pdb'
_cell_length_a 39.637
_cell_length_b 47.4
_cell_length_c 66.436
_cell_angle_alpha 90
_cell_angle_beta 90
_cell_angle_gamma 90
_space_group_name_H-M_alt 'P 21 21 21'
_space_group_name_Hall 'P 2ac 2ab'
loop_
    _symmetry_equiv_pos_as_xyz
    'x,y,z'
    '1/2-x,-y,1/2+z'
    '-x,1/2+y,1/2-z'
    '1/2+x,1/2-y,-z'
loop_
    _atom_site_type_symbol
    _atom_site_label
    _atom_site_Cartn_x
    _atom_site_Cartn_y
    _atom_site_Cartn_z
      N    N1    36.79200   -2.59900   27.35300
      C    C2    36.97100   -1.15400   27.68800
      C    C3    38.42300   -0.71000   27.70200
      O    O4    39.31200   -1.44600   27.28500
      N    N5    38.66800    0.49900   28.18900
      C    C6    40.03200    1.03200   28.23900
      C    C7    40.76100    0.62500   29.52000
      O    O8    40.13100    0.29300   30.53300
      C    C9    40.02100    2.54900   28.11900
      C    C10    39.44900    3.12700   26.83000
      C    C11    39.30900    4.61800   26.98500
      C    C12    40.32700    2.77400   25.64100
      N    N13    42.09000    0.63900   29.46100
      C    C14    42.90600    0.41500   30.64400
      C    C15    42.96300    1.70300   31.44400
      O    O16    42.57000    2.76600   30.96000
      C    C17    44.34500    0.04200   30.28100
      O    O18    45.00300    1.18100   29.71100
      C    C19    44.36900   -1.11500   29.29400
      N    N20    43.48100    1.60000   32.66400
      C    C21    43.62400    2.74800   33.55100
      C    C22    44.42300    3.90600   32.93200
      O    O23    43.98300    5.05700   32.97600
      C    C24    44.24200    2.30300   34.88500
      N    N25    45.58900    3.61500   32.35600
      C    C26    46.42900    4.67300   31.77900
      C    C27    45.71200    5.37900   30.62300
      O    O28    45.75000    6.60200   30.50000
      C    C29    47.75300    4.09600   31.28200
      N    N30    45.05700    4.58400   29.78100
      C    C31    44.26500    5.10600   28.67300
      C    C32    43.13700    5.98900   29.19000
      O    O33    42.87900    7.06400   28.63200
      C    C34    43.68900    3.95000   27.83900
      C    C35    44.65000    3.38000   26.80100
      C    C36    44.24500    1.98400   26.29000
      O    O37    43.35200    1.32800   26.88100
      O    O38    44.83800    1.53300   25.29200
      N    N39    42.46100    5.53400   30.25000
      C    C40    41.38300    6.31400   30.84600
      C    C41    41.88700    7.66400   31.36800
      O    O42    41.24000    8.69100   31.17900
      C    C43    40.68300    5.52800   31.96400
      C    C44    40.06400    4.23400   31.49700
      C    C45    39.09900    3.68700   32.55700
      N    N46    37.77500    4.29300   32.40700
      C    C47    36.72200    3.65800   31.89700
      N    N48    36.82100    2.38400   31.50900
      N    N49    35.55500    4.28900   31.79300
      N    N50    43.05200    7.66600   32.01700
      C    C51    43.65700    8.90700   32.49700
      C    C52    43.93300    9.87700   31.35100
      O    O53    43.59500   11.07000   31.41000
      C    C54    44.97100    8.62700   33.23600
      O    O55    44.69600    7.84200   34.39700
      C    C56    45.64000    9.93000   33.64500
      N    N57    44.54200    9.35700   30.29800
      C    C58    44.81400   10.17600   29.11400
      C    C59    43.52200   10.72000   28.53700
      O    O60    43.45200   11.89800   28.19000
      C    C61    45.53900    9.33600   28.07000
      C    C62    45.98200   10.08500   26.81000
      C    C63    46.78000   11.32800   27.21800
      C    C64    46.77000    9.16200   25.88900
      N    N65    42.49700    9.86600   28.43400
      C    C66    41.19200   10.29100   27.89300
      C    C67    40.59300   11.41200   28.77000
      O    O68    40.03400   12.36600   28.25000
      C    C69    40.23300    9.11100   27.84000
      C    C70    39.64000    8.77600   26.49100
      C    C71    38.47600    7.80000   26.69100
      C    C72    39.22400   10.02800   25.69700
      N    N73    40.77500   11.31500   30.08200
      C    C74    40.35400   12.37100   30.99200
      C    C75    41.00600   13.69700   30.65100
      O    O76    40.34600   14.73700   30.61000
      N    N77    42.31400   13.66600   30.42700
      C    C78    43.06000   14.90100   30.12300
      C    C79    42.63300   15.47600   28.78600
      O    O80    42.54000   16.71000   28.63500
      C    C81    44.56700   14.65100   30.14100
      C    C82    45.11400   14.23000   31.50000
      C    C83    46.62900   14.01300   31.44600
      C    C84    44.76800   15.25700   32.59500
      N    N85    42.38800   14.60800   27.80500
      C    C86    41.89300   15.08200   26.50000
      C    C87    40.51400   15.73600   26.67900
      O    O88    40.20100   16.77700   26.07700
      C    C89    41.77400   13.91300   25.51000
      C    C90    43.13000   13.33900   25.07400
      C    C91    42.87700   12.11400   24.20000
      C    C92    43.91800   14.40500   24.29700
      N    N93    39.70300   15.13500   27.53800
      C    C94    38.33700   15.60600   27.74000
      C    C95    38.33600   15.59700   27.78200
      C    C96    38.34800   16.99200   28.38900
      O    O97    37.41500   17.78200   28.19000
      C    C98    37.54000   14.61400   28.59300
      C    C99    37.61200   14.65000   28.73900
      O    O100    37.78900   14.81000   29.97300
      O    O101    37.32300   13.41300   28.12800
      N    N102    39.41000   17.27100   29.15100
      C    C103    39.56900   18.54900   29.84500
      C    C104    40.07800   19.60200   28.87300
      O    O105    40.08000   20.79500   29.19900
      C    C106    40.61300   18.45900   30.96500
      C    C107    40.21400   17.72000   32.22200
      C    C108    41.36300   17.69700   33.22300
      O    O109    42.09400   18.70700   33.31100
      O    O110    41.54800   16.67400   33.91000
      N    N111    40.55700   19.16800   27.71200
      C    C112    41.03300   20.11100   26.72000
      C    C113    42.50700   20.45500   26.80100
      O    O114    42.95300   21.42300   26.18300
      N    N115    43.28500   19.67800   27.54700
      C    C116    44.71900   19.94400   27.61400
      C    C117    44.73500   19.92100   27.61800
      C    C118    45.40400   19.64500   26.28200
      O    O119    45.06700   18.67000   25.60900
      C    C120    45.34200   19.11000   28.73200
      C    C121    45.39000   19.00900   28.66000
      C    C122    44.78000   19.46500   30.11500
      C    C123    45.48600   19.44800   30.12400
      C    C124    45.44500   18.64200   31.20500
      C    C125    44.11500   19.41300   30.74200
      C    C126    44.93600   20.94600   30.39300
      C    C127    46.42800   18.47000   30.81500
      N    N128    46.38500   20.46900   25.90800
      C    C129    47.15800   20.22000   24.69100
      C    C130    48.09400   19.03800   24.86800
      O    O131    48.36500   18.64100   26.02300
      C    C132    48.00600   21.44900   24.28800
      O    O133    49.03400   21.69000   25.27200
      C    C134    47.10500   22.67900   24.17300
      N    N135    48.63600   18.50100   23.76400
      C    C136    49.65900   17.44000   23.91400
      C    C137    50.82500   17.89700   24.77200
      O    O138    51.34400   17.11100   25.56200
      C    C139    50.21500   16.94800   22.58400
      C    C140    49.15900   16.20200   21.73800
      O    O141    48.02900   15.89000   22.19600
      N    N142    49.54700   15.90400   20.49100
      N    N143    51.25000   19.15300   24.58900
      C    C144    52.36100   19.68500   25.39100
      C    C145    52.00700   19.71300   26.87600
      O    O146    52.81100   19.34900   27.71000
      C    C147    52.73600   21.09200   24.93200
      C    C148    53.94000   21.69900   25.70500
      C    C149    55.12700   20.74600   25.68500
      N    N150    50.80600   20.16800   27.19800
      C    C151    50.38200   20.22300   28.60600
      C    C152    50.32900   18.82800   29.19100
      O    O153    50.71700   18.62500   30.34500
      C    C154    49.00300   20.88300   28.72300
      C    C155    49.06300   22.39500   28.55900
      C    C156    47.68800   23.01100   28.56100
      O    O157    46.79800   22.55200   27.85300
      N    N158    47.51900   24.08000   29.33000
      N    N159    49.84500   17.87000   28.39800
      C    C160    49.76000   16.47800   28.87200
      C    C161    51.16400   15.91100   29.09000
      O    O162    51.42600   15.26200   30.11600
      C    C163    48.98300   15.63300   27.88000
      C    C164    47.52500   16.09400   27.89400
      C    C165    49.07700   14.13500   28.24200
      C    C166    46.70200   15.49700   26.74500
      N    N167    52.07400   16.20500   28.16200
      C    C168    53.47700   15.72300   28.25700
      C    C169    54.13800   16.27800   29.50900
      O    O170    54.87400   15.57500   30.22200
      C    C171    54.26600   16.13700   26.99200
      N    N172    53.87000   17.53800   29.80000
      C    C173    54.42600   18.13900   30.98800
      C    C174    53.88800   17.52900   32.27600
      O    O175    54.64900   17.32100   33.22800
      C    C176    54.25000   19.66100   30.94100
      C    C177    55.13700   20.31600   29.88200
      O    O178    56.02300   19.63600   29.30700
      O    O179    54.95500   21.52200   29.62600
      N    N180    52.60700   17.18800   32.29100
      C    C181    51.97400   16.55900   33.45100
      C    C182    52.45100   15.11700   33.65800
      O    O183    52.44700   14.60200   34.80100
      C    C184    50.44800   16.57200   33.28000
      C    C185    49.82000   17.96600   33.22200
      C    C186    49.23600   18.39600   34.55600
      N    N187    48.13500   17.53700   34.97300
      C    C188    46.84900   17.88600   34.96700
      N    N189    45.94900   17.01400   35.36900
      N    N190    46.46300   19.09100   34.57000
      N    N191    52.84700   14.47200   32.55300
      C    C192    53.26100   13.05300   32.57400
      C    C193    54.77000   12.82700   32.49500
      O    O194    55.23800   11.66800   32.54300
      C    C195    52.57400   12.29000   31.43900
      C    C196    51.06100   12.28800   31.53900
      S    S197    50.29200   11.27700   30.25400
      C    C198    48.57100   11.35200   30.73500
      N    N199    55.53800   13.90800   32.41400
      C    C200    57.00800   13.81200   32.30900
      C    C201    57.38800   12.97500   31.10000
      O    O202    58.26500   12.12300   31.18200
      C    C203    57.63900   13.25500   33.60300
      C    C204    57.07600   13.89000   34.82400
      C    C205    56.25600   13.18800   35.67100
      C    C206    57.29000   15.23000   35.06000
      C    C207    55.69500   13.80100   36.76300
      C    C208    56.73600   15.85200   36.14800
      C    C209    55.92200   15.14300   36.99200
      N    N210    56.71000   13.21800   29.98500
      C    C211    56.97000   12.50700   28.72800
      C    C212    57.31800   13.51500   27.64600
      O    O213    57.00600   14.70500   27.76900
      C    C214    55.70300   11.77500   28.27100
      C    C215    55.22500   10.62500   29.15000
      C    C216    53.87200   10.14400   28.62900
      C    C217    56.25600    9.51400   29.16200
      N    N218    57.94600   13.04500   26.57700
      C    C219    58.13800   13.86100   25.38900
      C    C220    56.80400   14.14500   24.71900
      O    O221    55.90700   13.30300   24.70900
      C    C222    59.08100   13.13200   24.40800
      N    N223    56.66900   15.33700   24.14400
      C    C224    55.42900   15.65700   23.40800
      C    C225    55.15900   14.63800   22.29100
      O    O226    54.00100   14.25300   22.05100
      C    C227    55.44600   17.08000   22.86600
      C    C228    54.11900   17.42800   22.22200
      C    C229    54.02100   18.85900   21.71000
      O    O230    54.91200   19.69000   22.00800
      O    O231    53.03400   19.11700   20.97800
      N    N232    56.21400   14.20100   21.60200
      C    C233    56.01000   13.23400   20.50700
      C    C234    55.46600   11.90900   21.03300
      O    O235    54.65500   11.24700   20.37700
      C    C236    57.30000   13.02600   19.67800
      C    C237    56.99600   12.59500   18.24600
      C    C238    58.19500   12.82300   17.34200
      C    C239    57.78600   13.16400   15.90300
      N    N240    56.61900   12.38100   15.39900
      N    N241    55.91600   11.51200   22.22300
      C    C242    55.42000   10.28600   22.85000
      C    C243    53.90900   10.41900   23.10300
      O    O244    53.09400    9.50000   22.83000
      C    C245    56.20600   10.01000   24.17200
      O    O246    57.58700    9.73800   23.87900
      C    C247    55.61700    8.79800   24.90400
      N    N248    53.53000   11.57700   23.64400
      C    C249    52.12200   11.83500   23.92300
      C    C250    51.32700   11.80600   22.62100
      O    O251    50.25300   11.19300   22.57000
      C    C252    51.94600   13.14500   24.68000
      C    C253    50.44100   13.51800   24.75900
      C    C254    52.53900   12.96500   26.12700
      N    N255    51.85800   12.41200   21.56000
      C    C256    51.15600   12.43000   20.28700
      C    C257    50.86800   10.99500   19.83300
      O    O258    49.74400   10.65700   19.37200
      C    C259    51.99000   13.14700   19.23200
      C    C260    51.26900   13.21000   17.89200
      C    C261    52.10600   13.99500   16.89600
      C    C262    51.56100   13.80800   15.49400
      N    N263    52.39400   14.54900   14.48800
      N    N264    51.87400   10.13800   19.96200
      C    C265    51.69000    8.74600   19.55700
      C    C266    50.67500    8.00500   20.43600
      O    O267    49.85600    7.23900   19.91100
      C    C268    53.03300    8.01900   19.56600
      C    C269    53.97700    8.51400   18.48700
      O    O270    55.20900    8.32600   18.57300
      N    N271    53.42400    9.10900   17.45200
      N    N272    50.73600    8.20400   21.75500
      C    C273    49.73400    7.60200   22.66600
      C    C274    48.30800    8.05800   22.32300
      O    O275    47.36600    7.25200   22.32700
      C    C276    50.02100    7.90000   24.13800
      C    C277    51.02600    6.94000   24.73700
      C    C278    50.79900    5.56400   24.73300
      C    C279    52.20600    7.41000   25.29800
      C    C280    51.73600    4.67500   25.27900
      C    C281    53.14000    6.52900   25.84100
      C    C282    52.90900    5.17400   25.81500
      O    O283    53.85100    4.33400   26.37200
      N    N284    48.16000    9.35200   22.02900
      C    C285    46.83800    9.92100   21.71500
      C    C286    46.35600    9.32800   20.39800
      O    O287    45.17700    8.96500   20.26900
      C    C288    46.92500   11.45300   21.60800
      C    C289    45.64700   12.03500   21.00400
      C    C290    47.22000   12.08100   22.99500
      N    N291    47.25700    9.20300   19.41900
      C    C292    46.87000    8.61100   18.14000
      C    C293    46.87500    8.59100   18.13700
      C    C294    46.37000    7.16200   18.30900
      O    O295    45.38100    6.75500   17.68100
      C    C296    48.03900    8.69700   17.15800
      C    C297    48.03800    8.58400   17.14700
      O    O298    48.38300   10.07000   16.91900
      O    O299    47.62400    8.02300   15.90800
      N    N300    47.07800    6.38000   19.13700
      C    C301    46.68700    4.97000   19.38100
      C    C302    45.34000    4.92700   20.10500
      O    O303    44.44300    4.13400   19.76000
      C    C304    47.75300    4.24500   20.21100
      C    C305    47.45200    2.73300   20.41300
      C    C306    48.53200    1.95100   21.17500
      N    N307    48.53600    2.30800   22.58900
      C    C308    49.37800    1.82100   23.49500
      N    N309    50.30200    0.92300   23.15500
      N    N310    49.29200    2.23600   24.75400
      N    N311    45.18600    5.79200   21.10500
      C    C312    43.92100    5.83500   21.87200
      C    C313    42.74000    6.20700   20.97600
      O    O314    41.68500    5.55200   20.98500
      C    C315    44.05700    6.87600   22.99100
      C    C316    43.12800    6.90200   24.21400
      C    C317    43.13700    8.31800   24.91300
      C    C318    41.78000    6.35800   24.08500
      N    N319    42.89300    7.26700   20.19200
      C    C320    41.78700    7.65200   19.31200
      C    C321    41.49500    6.57700   18.28200
      O    O322    40.33900    6.34600   17.94500
      C    C323    42.04400    9.01100   18.66200
      C    C324    42.03700   10.15400   19.70100
      C    C325    42.13500   11.53900   19.04900
      C    C326    40.75700   10.13500   20.56900
      N    N327    42.52900    5.90100   17.78100
      C    C328    42.27400    4.75900   16.87500
      C    C329    41.44600    3.64500   17.53700
      O    O330    40.52200    3.08900   16.91200
      C    C331    43.56600    4.19600   16.34000
      N    N332    41.76900    3.33100   18.78800
      C    C333    41.04100    2.32400   19.55400
      C    C334    39.58000    2.72700   19.77400
      O    O335    38.67100    1.89200   19.62900
      C    C336    41.69100    2.12600   20.93000
      C    C337    43.01500    1.39300   20.90600
      C    C338    43.28900    0.83800   22.29700
      C    C339    44.62000    0.11900   22.36500
      N    N340    44.66500   -0.76400   23.56100
      N    N341    39.34800    3.98200   20.15300
      C    C342    37.97500    4.48700   20.33600
      C    C343    37.17200    4.44000   19.04700
      O    O344    35.94500    4.32400   19.07800
      C    C345    37.95900    5.92700   20.84800
      C    C346    38.45400    6.09400   22.30000
      C    C347    38.68000    7.59100   22.68300
      C    C348    37.51600    5.41900   23.30000
      N    N349    37.88300    4.54900   17.93100
      C    C350    37.28400    4.55400   16.59200
      C    C351    36.87100    3.18500   16.08900
      O    O352    36.27500    3.07300   14.99200
      N    N353    37.18200    2.13800   16.87000
      C    C354    36.83500    0.76100   16.48200
      C    C355    36.82100    0.77700   16.48100
      C    C356    35.88000    0.16000   17.49800
      O    O357    35.84200    0.59600   18.66800
      C    C358    38.10000   -0.12500   16.40900
      C    C359    38.07100   -0.09500   16.36400
      C    C360    39.15100    0.36600   15.42200
      C    C361    39.20200    0.54400   15.58700
      S    S362    38.61100    0.09200   13.73000
      S    S363    40.04700   -0.73300   14.65800
      C    C364    38.56800   -1.67400   13.53200
      C    C365    38.77200   -1.14200   13.46100
      N    N366    35.11800   -0.85800   17.07900
      C    C367    34.24400   -1.54500   18.02300
      C    C368    34.29200   -3.03800   17.75400
      O    O369    34.71100   -3.45900   16.67000
      C    C370    32.79000   -1.05500   17.88800
      C    C371    32.20400   -1.43900   16.53700
      C    C372    30.81100   -0.90500   16.28200
      O    O373    30.30000   -0.09600   17.09000
      O    O374    30.17900   -1.32200   15.27200
      N    N375    33.90000   -3.83600   18.74200
      C    C376    33.90200   -5.28300   18.51600
      C    C377    33.81100   -5.30700   18.58700
      C    C378    32.91300   -5.67500   17.41800
      O    O379    31.78500   -5.16600   17.33500
      C    C380    33.57900   -6.03000   19.80400
      C    C381    33.12600   -5.92800   19.80500
      C    C382    34.53100   -5.69700   20.93900
      C    C383    33.97900   -6.31800   20.99300
      C    C384    33.92300   -6.00700   22.30600
      C    C385    33.16500   -7.23200   21.93200
      N    N386    32.55800   -5.49600   22.44200
      N    N387    31.92500   -6.60000   22.40800
      C    C388    32.02600   -5.04000   23.57200
      C    C389    30.70200   -6.86900   21.95200
      N    N390    32.75200   -4.99700   24.68200
      N    N391    29.65000   -6.23700   22.45700
      N    N392    30.76900   -4.61100   23.59300
      N    N393    30.51700   -7.77300   20.99900
      N    N394    33.33100   -6.60600   16.56500
      C    C395    32.41800   -7.07200   15.52500
      C    C396    31.78300   -8.41500   15.86900
      O    O397    30.96700   -8.90600   15.11700
      C    C398    33.09200   -7.05500   14.12500
      C    C399    34.12200   -8.04400   13.84200
      C    C400    34.41100   -8.11900   12.30700
      N    N401    35.29000   -7.10500   11.69700
      C    C402    34.98700   -6.42500   10.59000
      N    N403    33.79500   -6.53800   10.04300
      N    N404    35.87200   -5.60500   10.02400
      N    N405    32.16200   -9.01800   17.00000
      C    C406    31.75400  -10.40700   17.22300
      C    C407    31.02600  -10.44900   18.52600
      O    O408    30.97500   -9.44900   19.25200
      C    C409    32.95800  -11.35900   17.35800
      O    O410    33.72700  -10.92700   18.47300
      C    C411    33.84300  -11.32700   16.10700
      N    N412    30.51400  -11.63700   18.82700
      C    C413    29.79200  -11.91200   20.05600
      C    C414    30.73800  -11.92600   21.25900
      O    O415    30.87400  -10.92800   21.96900
      C    C416    29.07400  -13.25900   19.93700
      C    C417    28.37800  -13.48100   18.60400
