# CIF file generated by openbabel 2.3.2, see http://openbabel.sf.net
data_I
_chemical_name_common '../proteins/pdb/3C90.pdb'
_cell_length_a 117.702
_cell_length_b 43.119
_cell_length_c 67.547
_cell_angle_alpha 90
_cell_angle_beta 96.43
_cell_angle_gamma 90
_space_group_name_H-M_alt 'C 1 2 1'
_space_group_name_Hall 'C 2y'
loop_
    _symmetry_equiv_pos_as_xyz
    'x,y,z'
    '-x,y,-z'
    '1/2+x,1/2+y,z'
    '1/2-x,1/2+y,-z'
loop_
    _atom_site_type_symbol
    _atom_site_label
    _atom_site_Cartn_x
    _atom_site_Cartn_y
    _atom_site_Cartn_z
      N    N1    28.37000    9.87500   29.38400
      C    C2    28.87200    8.84300   28.42900
      C    C3    28.13900    7.52600   28.62800
      O    O4    28.11100    6.96100   29.73400
      C    C5    30.41200    8.65700   28.52600
      C    C6    30.81400    7.18100   28.39200
      C    C7    31.10900    9.49400   27.46700
      N    N8    27.52300    7.05500   27.55100
      C    C9    26.78800    5.79900   27.58500
      C    C10    27.63900    4.67400   26.97800
      O    O11    27.23400    3.50200   26.99400
      C    C12    25.41500    5.95300   26.89000
      C    C13    24.56000    4.67800   26.80200
      C    C14    24.09100    4.22300   28.17600
      C    C15    24.22800    2.71200   28.35300
      N    N16    24.21700    2.31600   29.80800
      N    N17    28.82200    5.03000   26.46200
      C    C18    29.75500    4.03600   25.92100
      C    C19    31.23000    4.43900   25.85100
      O    O20    31.61100    5.62300   25.84400
      C    C21    29.34900    3.56400   24.49800
      O    O22    28.90500    4.67900   23.72800
      C    C23    28.14200    2.63200   24.51300
      N    N24    32.04800    3.39600   25.77700
      C    C25    33.37700    3.47900   25.21700
      C    C26    33.28600    4.13600   23.82600
      O    O27    34.10900    4.99100   23.48400
      C    C28    33.90900    2.06100   25.08900
      C    C29    35.36500    1.97300   24.78600
      C    C30    36.30900    2.11900   25.79300
      C    C31    35.79600    1.69000   23.49700
      C    C32    37.67200    2.00100   25.50700
      C    C33    37.14700    1.57400   23.20000
      C    C34    38.09000    1.72900   24.20800
      N    N35    32.28100    3.72700   23.04500
      C    C36    32.05400    4.25700   21.69100
      C    C37    31.66700    5.75900   21.65300
      O    O38    32.12700    6.48500   20.76700
      C    C39    31.01700    3.41000   20.93000
      C    C40    31.46200    1.98000   20.60200
      C    C41    31.43600    1.04700   21.81000
      O    O42    30.58100    1.25200   22.69700
      O    O43    32.28200    0.12600   21.89200
      N    N44    30.83500    6.20300   22.60400
      C    C45    30.50300    7.63100   22.79700
      C    C46    31.75200    8.48400   23.00100
      O    O47    31.93000    9.54600   22.38100
      C    C48    29.60300    7.82300   24.03200
      C    C49    28.16800    7.33600   23.81900
      O    O50    27.75800    7.07100   22.66300
      O    O51    27.37600    7.18600   24.78200
      N    N52    32.61500    8.03000   23.90200
      C    C53    33.83600    8.75300   24.18000
      C    C54    34.70400    8.79600   22.92500
      O    O55    35.23900    9.84500   22.56600
      C    C56    34.59900    8.12000   25.35000
      C    C57    35.94200    8.78800   25.65400
      C    C58    35.80300   10.24400   26.18600
      C    C59    36.76200    7.91200   26.58200
      N    N60    34.83000    7.66300   22.24700
      C    C61    35.68000    7.63400   21.06400
      C    C62    35.18300    8.64300   20.01900
      O    O63    35.99400    9.34500   19.39700
      C    C64    35.79800    6.23800   20.47900
      C    C65    36.93800    6.09700   19.51700
      C    C66    36.71100    6.06800   18.14600
      C    C67    38.25100    6.03100   19.98400
      C    C68    37.76500    5.95500   17.25500
      C    C69    39.31300    5.90700   19.09900
      C    C70    39.06800    5.86600   17.72500
      N    N71    33.85800    8.73700   19.85300
      C    C72    33.28000    9.70900   18.91200
      C    C73    33.60600   11.12800   19.33800
      O    O74    33.98500   11.94600   18.49600
      C    C75    31.75000    9.52800   18.75700
      N    N76    33.45600   11.40700   20.63500
      C    C77    33.78500   12.70100   21.20300
      C    C78    35.25100   13.06600   20.94000
      O    O79    35.55100   14.17200   20.46100
      C    C80    33.47400   12.71500   22.70900
      C    C81    33.84600   13.99000   23.45200
      C    C82    33.27300   15.24500   22.81600
      O    O83    32.13500   15.18800   22.27300
      O    O84    33.96000   16.29800   22.87100
      N    N85    36.15600   12.13300   21.24900
      C    C86    37.58800   12.38400   21.06300
      C    C87    37.94500   12.60700   19.58200
      O    O88    38.75500   13.47400   19.27300
      C    C89    38.43200   11.25600   21.67700
      C    C90    38.28000   11.01600   23.19100
      C    C91    39.42000   10.13200   23.64000
      C    C92    38.25000   12.31300   24.01200
      N    N93    37.31600   11.83900   18.68800
      C    C94    37.48500   12.01000   17.23900
      C    C95    37.02600   13.39000   16.78900
      O    O96    37.67000   14.02900   15.94000
      N    N97    35.91300   13.85100   17.36300
      C    C98    35.42200   15.21800   17.10300
      C    C99    36.42600   16.29700   17.52200
      O    O100    36.62700   17.28400   16.80500
      C    C101    34.06800   15.45400   17.76000
      C    C102    32.95800   14.63500   17.11200
      O    O103    31.82000   14.68200   17.60600
      O    O104    33.12500   13.89400   16.12100
      N    N105    37.04300   16.11100   18.68600
      C    C106    38.10000   17.00400   19.14300
      C    C107    39.29300   16.98400   18.19000
      O    O108    39.83200   18.03100   17.86600
      C    C109    38.56300   16.64400   20.56300
      C    C110    37.47500   16.78500   21.61800
      C    C111    37.88800   16.24000   22.99200
      N    N112    36.73800   16.19400   23.88900
      C    C113    36.76800   15.70200   25.12300
      N    N114    35.65900   15.70400   25.86100
      N    N115    37.89900   15.21200   25.61800
      N    N116    39.69500   15.79100   17.74600
      C    C117    40.79500   15.64000   16.80200
      C    C118    40.47100   16.32200   15.46400
      O    O119    41.35000   16.90800   14.81800
      C    C120    41.10100   14.16400   16.59000
      N    N121    39.20500   16.26400   15.07000
      C    C122    38.74400   16.84900   13.80700
      C    C123    38.60800   18.37800   13.86000
      O    O124    39.02100   19.05200   12.91900
      C    C125    37.42200   16.18500   13.36800
      C    C126    36.67300   16.89800   12.22000
      C    C127    35.50200   16.11000   11.56800
      N    N128    34.63400   15.42900   12.53500
      C    C129    34.83100   14.18100   12.97300
      N    N130    35.87000   13.47200   12.53600
      N    N131    33.99300   13.63500   13.84400
      N    N132    38.01600   18.91800   14.93000
      C    C133    37.75300   20.36800   15.03500
      C    C134    38.80600   21.15700   15.81100
      O    O135    38.85100   22.38200   15.71900
      C    C136    36.35400   20.66700   15.63900
      O    O137    36.33300   20.27400   17.01800
      C    C138    35.25800   19.83300   14.96000
      N    N139    39.63000   20.45400   16.58600
      C    C140    40.72300   21.07300   17.35300
      C    C141    40.27000   22.28100   18.18900
      O    O142    40.77200   23.40100   17.98600
      C    C143    41.92000   21.43800   16.43400
      C    C144    42.45600   20.25700   15.60400
      C    C145    43.41700   19.35400   16.35400
      N    N146    43.57200   18.03600   15.73500
      C    C147    44.66800   17.30000   15.81500
      N    N148    44.71200   16.11600   15.21700
      N    N149    45.73400   17.74400   16.47200
      N    N150    39.34100   22.06500   19.13500
      C    C151    38.88300   23.15600   19.99900
      C    C152    40.08000   23.67300   20.78700
      O    O153    40.88000   22.87000   21.28600
      C    C154    37.85400   22.49100   20.91700
      C    C155    38.12700   21.03400   20.83500
      C    C156    38.70700   20.77900   19.48700
      N    N157    40.21400   24.99600   20.87400
      C    C158    41.35600   25.61000   21.55000
      C    C159    41.38900   25.24600   23.04200
      O    O160    42.46400   25.08000   23.62900
      C    C161    41.33900   27.13300   21.36400
      N    N162    40.20800   25.09000   23.63200
      C    C163    40.09400   24.86600   25.07400
      C    C164    40.45100   23.45900   25.57400
      O    O165    40.50000   23.23400   26.77700
      C    C166    38.68200   25.21100   25.54300
      C    C167    38.57800   25.27900   27.06200
      O    O168    39.54000   25.77100   27.72700
      O    O169    37.57800   24.85800   27.66900
      N    N170    40.69700   22.52600   24.65200
      C    C171    40.84200   21.10300   24.98700
      C    C172    42.25900   20.59700   25.33900
      O    O173    43.17600   20.71000   24.53000
      C    C174    40.30100   20.27000   23.82300
      O    O175    40.42300   18.89500   24.12600
      N    N176    42.42000   19.96600   26.51200
      C    C177    43.69100   19.29700   26.82000
      C    C178    43.91700   18.09700   25.89800
      O    O179    45.05600   17.67900   25.68400
      C    C180    43.75700   18.81300   28.29300
      O    O181    42.64300   17.95800   28.56100
      C    C182    43.55800   19.98000   29.27900
      N    N183    42.83500   17.53200   25.36800
      C    C184    42.96100   16.43800   24.40100
      C    C185    43.79300   16.89700   23.19600
      O    O186    44.71300   16.20400   22.75900
      C    C187    41.57400   15.92700   23.94700
      O    O188    40.81300   15.49600   25.08200
      C    C189    41.71200   14.65100   23.11700
      N    N190    43.49500   18.09500   22.69200
      C    C191    44.18200   18.61400   21.51600
      C    C192    45.69600   18.75500   21.73600
      O    O193    46.48800   18.46000   20.84200
      C    C194    43.52000   19.93100   21.02600
      C    C195    44.38200   20.62500   19.98900
      C    C196    42.12800   19.63900   20.45900
      N    N197    46.09400   19.20300   22.92500
      C    C198    47.51300   19.35600   23.27600
      C    C199    48.22100   18.00900   23.32100
      O    O200    49.33800   17.85200   22.80900
      C    C201    47.64900   20.07300   24.60600
      N    N202    47.54800   17.03400   23.92200
      C    C203    48.03300   15.66000   23.98300
      C    C204    48.23700   15.07200   22.58700
      O    O205    49.28100   14.48500   22.30100
      C    C206    47.07200   14.80900   24.79400
      N    N207    47.25900   15.25100   21.70400
      C    C208    47.40800   14.80100   20.31000
      C    C209    48.61700   15.41800   19.60400
      O    O210    49.33300   14.74800   18.83800
      C    C211    46.14000   15.07900   19.50700
      C    C212    44.97200   14.17200   19.89300
      C    C213    43.67500   14.70700   19.27400
      C    C214    45.25700   12.70700   19.52200
      N    N215    48.84400   16.69300   19.87400
      C    C216    49.88000   17.43700   19.18400
      C    C217    51.28800   17.04900   19.60500
      O    O218    52.20400   17.06000   18.77900
      C    C219    49.64600   18.92900   19.37500
      C    C220    48.61200   19.46600   18.42200
      O    O221    48.42300   18.86400   17.32900
      O    O222    47.95300   20.49100   18.66700
      N    N223    51.44200   16.68900   20.87800
      C    C224    52.74300   16.33400   21.46100
      C    C225    53.31500   15.04400   20.90000
      O    O226    54.51000   14.78200   20.98800
      N    N227    52.45100   14.23200   20.31300
      C    C228    52.91000   13.05600   19.61200
      C    C229    52.96500   11.82200   20.48100
      O    O230    52.71200   11.86200   21.69100
      N    N231    53.32800   10.73200   19.82700
      C    C232    53.10300    9.38800   20.32400
      C    C233    53.98100    9.03100   21.52100
      O    O234    53.55300    8.26800   22.40100
      C    C235    53.28400    8.35600   19.18000
      C    C236    53.19100    6.92700   19.69000
      C    C237    52.24300    8.57400   18.10100
      N    N238    55.20000    9.56400   21.56500
      C    C239    56.10300    9.23100   22.68400
      C    C240    55.52000    9.66400   24.05100
      O    O241    55.51900    8.87700   25.01400
      C    C242    57.52100    9.78900   22.45300
      C    C243    58.51500    9.32500   23.47300
      N    N244    58.95400   10.13000   24.50200
      C    C245    59.11300    8.12300   23.65500
      C    C246    59.80500    9.45400   25.25800
      N    N247    59.91300    8.23200   24.77000
      N    N248    55.02000   10.90000   24.13000
      C    C249    54.40000   11.42800   25.35000
      C    C250    53.09900   10.67600   25.70500
      O    O251    52.78300   10.48500   26.87700
      C    C252    54.12800   12.91800   25.20600
      N    N253    52.35600   10.25300   24.68400
      C    C254    51.10800    9.50000   24.88800
      C    C255    51.35200    8.11600   25.49000
      O    O256    50.64800    7.71600   26.41300
      C    C257    50.34500    9.35500   23.56600
      C    C258    49.21900   10.33000   23.20300
      C    C259    49.08000   11.55800   24.10700
      C    C260    49.26000   10.67400   21.71900
      N    N261    52.33800    7.38800   24.96000
      C    C262    52.70500    6.07500   25.50300
      C    C263    53.17300    6.21300   26.94600
      O    O264    52.82500    5.40600   27.80600
      N    N265    53.94900    7.25600   27.20900
      C    C266    54.44100    7.50500   28.54900
      C    C267    53.26500    7.69900   29.51000
      O    O268    53.25200    7.12300   30.61100
      C    C269    55.36200    8.72200   28.56600
      C    C270    56.01200    8.98100   29.92000
      C    C271    57.02000   10.13600   29.84900
      C    C272    58.33200    9.67300   29.25600
      N    N273    59.52400   10.39400   29.84900
      N    N274    52.29000    8.49800   29.08600
      C    C275    51.09000    8.73600   29.89400
      C    C276    50.29300    7.45000   30.11200
      O    O277    49.81200    7.20100   31.21800
      C    C278    50.19000    9.79300   29.25300
      C    C279    50.64400   11.22900   29.51100
      C    C280    50.62600   11.62400   30.99600
      C    C281    49.20400   11.66300   31.56500
      N    N282    49.19600   12.08900   33.00100
      N    N283    50.13600    6.66600   29.04500
      C    C284    49.40500    5.40500   29.12200
      C    C285    50.06900    4.43400   30.11900
      O    O286    49.39100    3.81100   30.93600
      C    C287    49.27200    4.76600   27.73400
      C    C288    48.41900    3.48500   27.63100
      C    C289    47.03200    3.67100   28.21700
      C    C290    48.30200    3.06400   26.17900
      N    N291    51.39200    4.31500   30.05200
      C    C292    52.11600    3.39400   30.93400
      C    C293    51.98100    3.85800   32.38100
      O    O294    51.71200    3.05600   33.28900
      C    C295    53.60500    3.30900   30.53700
      C    C296    54.44600    2.39500   31.43600
      C    C297    54.08100    0.92800   31.16200
      C    C298    55.93400    2.63200   31.24800
      N    N299    52.18800    5.15600   32.59100
      C    C300    52.04800    5.75200   33.90000
      C    C301    50.64300    5.45600   34.44200
      O    O302    50.49300    5.10500   35.61100
      C    C303    52.35600    7.26700   33.81800
      C    C304    51.52200    8.19700   34.67400
      C    C305    51.56700    9.64500   34.16100
      O    O306    50.63000   10.40700   34.51100
      O    O307    52.52900   10.01700   33.40200
      N    N308    49.61900    5.56500   33.59300
      C    C309    48.24200    5.35000   34.07700
      C    C310    47.99400    3.88000   34.42400
      O    O311    47.26700    3.56900   35.37900
      C    C312    47.20000    5.84700   33.09000
      C    C313    45.78000    5.87900   33.64900
      C    C314    45.68100    6.51000   35.03800
      O    O315    46.19600    7.62900   35.24100
      O    O316    45.08200    5.86900   35.93400
      N    N317    48.60100    2.99700   33.64000
      C    C318    48.56000    1.56200   33.89700
      C    C319    49.13600    1.27200   35.29400
      O    O320    48.57500    0.47600   36.05100
      C    C321    49.33900    0.79200   32.80400
      N    N322    50.25000    1.92800   35.62300
      C    C323    50.80100    1.87300   36.99000
      C    C324    49.79900    2.33600   38.02600
      O    O325    49.62100    1.67900   39.05200
      N    N326    49.14400    3.46700   37.78000
      C    C327    48.16500    3.99300   38.75500
      C    C328    46.94800    3.08900   38.90000
      O    O329    46.38000    2.96600   39.99600
      C    C330    47.76000    5.41800   38.39700
      C    C331    48.94200    6.36100   38.54900
      C    C332    48.56900    7.82000   38.44200
      O    O333    47.56700    8.13100   37.77700
      O    O334    49.27500    8.66000   39.03800
      N    N335    46.57500    2.44300   37.80300
      C    C336    45.54200    1.40900   37.84100
      C    C337    45.95500    0.24700   38.75500
      O    O338    45.13700   -0.21200   39.59400
      C    C339    45.17100    0.89300   36.42900
      C    C340    44.27000   -0.33000   36.54200
      C    C341    44.46400    1.97000   35.65600
      N    N342    47.19900   -0.22800   38.59300
      C    C343    47.70300   -1.33200   39.41000
      C    C344    47.71600   -0.92600   40.88000
      O    O345    47.27500   -1.68200   41.75000
      C    C346    49.09200   -1.80200   38.95500
      C    C347    49.54100   -3.11100   39.57700
      C    C348    48.83400   -3.91700   40.43400
      C    C349    50.79100   -3.76400   39.35800
      N    N350    49.58300   -5.02200   40.77900
      C    C351    50.78900   -4.95600   40.12500
      C    C352    51.92400   -3.46200   38.57900
      C    C353    51.87400   -5.84000   40.14300
      C    C354    53.00500   -4.34200   38.59300
      C    C355    52.96700   -5.52400   39.37000
      N    N356    48.16700    0.29900   41.15300
      C    C357    48.17200    0.80000   42.53400
      C    C358    46.76600    0.74800   43.15200
      O    O359    46.57900    0.27700   44.29300
      C    C360    48.69300    2.23700   42.56200
      C    C361    50.21400    2.42800   42.58300
      C    C362    50.54900    3.91600   42.47500
      C    C363    50.74400    1.89500   43.89300
      N    N364    45.79100    1.23100   42.38700
      C    C365    44.40600    1.31400   42.84700
      C    C366    43.77500   -0.07400   42.98500
      O    O367    42.93400   -0.30400   43.87600
      C    C368    43.59800    2.19200   41.92300
      N    N369    44.19100   -1.00500   42.12200
      C    C370    43.66300   -2.36700   42.16300
      C    C371    44.04800   -3.08400   43.47300
      O    O372    43.26900   -3.86800   44.02700
      C    C373    44.13800   -3.15200   40.94900
      N    N374    45.25200   -2.78600   43.96600
      C    C375    45.78900   -3.44400   45.15100
      C    C376    45.47000   -2.73000   46.43500
      O    O377    45.43400   -3.36000   47.50800
      C    C378    47.30300   -3.55000   45.03900
      C    C379    47.79100   -4.16000   43.74500
      C    C380    47.96500   -5.64200   43.83700
      O    O381    46.98200   -6.31700   44.20000
      O    O382    49.08300   -6.12700   43.53000
      N    N383    45.23800   -1.42300   46.34300
      C    C384    45.25400   -0.57200   47.53400
      C    C385    44.20800    0.53100   47.63600
      O    O386    44.29500    1.36200   48.54600
      C    C387    46.63600    0.05400   47.67600
      C    C388    47.70500   -0.94400   47.97400
      N    N389    47.83300   -1.53700   49.21200
      C    C390    48.69400   -1.45800   47.20200
      C    C391    48.85300   -2.37800   49.18900
      N    N392    49.39800   -2.34500   47.98400
      N    N393    43.23600    0.57100   46.73300
      C    C394    42.22100    1.63400   46.78300
      C    C395    40.80300    1.08900   46.62100
      O    O396    40.62000   -0.07700   46.27600
      C    C397    42.50000    2.71300   45.72100
      C    C398    43.84700    3.43100   45.83200
      C    C399    44.03100    4.24400   47.11300
      O    O400    43.02300    4.63000   47.77100
      O    O401    45.20300    4.50600   47.46300
      N    N402    39.81700    1.94500   46.87100
      C    C403    38.39400    1.60800   46.79400
      C    C404    37.95300    1.38000   45.35900
      O    O405    38.60400    1.87100   44.44200
      C    C406    37.55800    2.75900   47.37200
      O    O407    37.50700    3.88100   46.47500
      N    N408    36.83300    0.67600   45.16600
      C    C409    36.25700    0.50400   43.81900
      C    C410    36.09400    1.81500   43.05100
      O    O411    36.33900    1.86500   41.83500
      C    C412    34.91900   -0.25400   43.85800
      C    C413    35.10200   -1.75300   43.80000
      O    O414    36.17000   -2.27100   44.13700
      N    N415    34.07200   -2.46300   43.33500
      N    N416    35.69700    2.86600   43.76000
      C    C417    35.46300    4.17400   43.14000
      C    C418    36.74400    4.80600   42.57600
      O    O419    36.74300    5.36500   41.47600
      C    C420    34.78800    5.13200   44.12600
      C    C421    34.36100    6.41600   43.46500
      O    O422    35.06300    7.43200   43.65100
      O    O423    33.37500    6.49500   42.69400
      N    N424    37.82300    4.71200   43.34700
      C    C425    39.13900    5.17800   42.93900
      C    C426    39.66700    4.33000   41.77200
      O    O427    40.24300    4.85900   40.81100
      C    C428    40.09200    5.11300   44.12000
      N    N429    39.47800    3.01400   41.86500
      C    C430    39.86400    2.12500   40.77300
      C    C431    39.12000    2.46800   39.48000
      O    O432    39.72700    2.53700   38.42100
      C    C433    39.59400    0.66900   41.14800
      C    C434    39.93000   -0.36900   40.06300
      C    C435    41.39100   -0.28000   39.57300
      C    C436    39.63900   -1.71900   40.61600
      N    N437    37.80500    2.64000   39.57800
      C    C438    36.97600    3.00500   38.41700
      C    C439    37.46900    4.31300   37.78800
      O    O440    37.51400    4.44800   36.56300
      C    C441    35.52600    3.12900   38.82800
      N    N442    37.83200    5.27000   38.63600
      C    C443    38.41400    6.53300   38.18000
      C    C444    39.69300    6.31000   37.36600
      O    O445    39.79700    6.80900   36.23700
      C    C446    38.66900    7.48800   39.36600
      C    C447    39.44400    8.77000   39.02100
      C    C448    38.76800    9.64800   37.97200
      O    O449    39.47500   10.20200   37.10200
      O    O450    37.53400    9.78400   38.00800
      N    N451    40.64600    5.54700   37.91100
      C    C452    41.92800    5.32700   37.22500
      C    C453    41.70800    4.57400   35.92400
      O    O454    42.32000    4.90200   34.90300
      C    C455    42.93600    4.55300   38.09300
      C    C456    43.43400    5.29600   39.33300
      C    C457    43.86400    6.72900   39.06700
      O    O458    44.49900    7.02000   38.02700
      O    O459    43.58800    7.56500   39.93700
      N    N460    40.84200    3.55900   35.97200
      C    C461    40.51600    2.81700   34.75800
      C    C462    39.93600    3.75700   33.67700
      O    O463    40.31500    3.65500   32.51600
      C    C464    39.57300    1.63000   35.05700
      C    C465    40.35200    0.55000   35.82500
      C    C466    39.04300    1.04500   33.75900
      C    C467    39.53400   -0.64100   36.26500
      N    N468    39.01500    4.64500   34.05800
      C    C469    38.48000    5.65000   33.11100
      C    C470    39.58100    6.44000   32.42000
      O    O471    39.48200    6.70800   31.22900
      C    C472    37.45500    6.59200   33.74700
      O    O473    38.05700    7.62900   34.49400
      N    N474    40.61800    6.80800   33.17100
      C    C475    41.76400    7.52500   32.63100
      C    C476    42.62000    6.67100   31.69200
      O    O477    43.08900    7.15200   30.64300
      C    C478    42.62500    8.05600   33.77600
      C    C479    41.95200    9.20500   34.56500
      C    C480    42.73200    9.58900   35.80800
      O    O481    44.05100    9.69300   35.67100
      N    N482    42.14500    9.78800   36.89400
      N    N483    42.84600    5.41400   32.07600
      C    C484    43.56700    4.49400   31.19700
      C    C485    42.85100    4.35700   29.84900
      O    O486    43.49600    4.34100   28.80500
      C    C487    43.72100    3.12800   31.86100
      C    C488    44.49900    2.06100   31.08900
      C    C489    45.97000    2.44200   31.01200
      C    C490    44.32600    0.73500   31.78100
      N    N491    41.52100    4.26300   29.88000
      C    C492    40.75500    4.08900   28.64900
      C    C493    40.79500    5.35500   27.80700
      O    O494    40.87500    5.28800   26.57700
      C    C495    39.31300    3.69000   28.95000
      C    C496    39.12400    2.34100   29.65100
      C    C497    37.65000    2.20300   30.06700
      C    C498    39.57700    1.19900   28.75600
      N    N499    40.74600    6.50200   28.47700
      C    C500    40.91300    7.79200   27.80000
      C    C501    42.24200    7.81700   27.02600
      O    O502    42.26100    8.05800   25.80400
      C    C503    40.84200    8.93700   28.80900
      C    C504    41.25900   10.28500   28.24300
      C    C505    42.55200   10.77700   28.44200
      C    C506    40.36100   11.06700   27.50800
      C    C507    42.95100   12.01800   27.93300
      C    C508    40.75000   12.30600   26.98600
      C    C509    42.04800   12.77800   27.20900
      O    O510    42.45800   13.99500   26.68700
      N    N511    43.34200    7.54400   27.72300
      C    C512    44.66400    7.58900   27.09100
      C    C513    44.81600    6.55100   25.99700
      O    O514    45.50200    6.79300   25.00400
      C    C515    45.79700    7.46800   28.12700
      C    C516    45.89400    8.70600   28.97000
      C    C517    45.64400    8.81000   30.30000
      C    C518    46.20000   10.03100   28.51500
      N    N519    45.79500   10.11200   30.71200
      C    C520    46.14700   10.88300   29.63500
      C    C521    46.54300   10.58300   27.26900
      C    C522    46.40100   12.25800   29.55100
      C    C523    46.79900   11.95100   27.18500
      C    C524    46.73200   12.76900   28.31900
      N    N525    44.18400    5.39200   26.17900
      C    C526    44.16500    4.37700   25.12000
      C    C527    43.51400    4.90400   23.83200
      O    O528    44.06500    4.72800   22.73900
      C    C529    43.49800    3.08900   25.63100
      O    O530    44.23000    2.63900   26.78400
      C    C531    43.65500    1.97300   24.63500
      N    N532    42.37000    5.56800   23.96400
      C    C533    41.65600    6.10600   22.77900
      C    C534    42.41400    7.25200   22.09900
      O    O535    42.45200    7.33400   20.86800
      C    C536    40.25500    6.57000   23.17300
      C    C537    39.30400    5.40400   23.43000
      C    C538    37.87700    5.86200   23.67400
      O    O539    37.53900    7.03200   23.43300
      N    N540    37.03100    4.94000   24.14800
      N    N541    43.02500    8.11600   22.90400
      C    C542    43.83200    9.23200   22.38600
      C    C543    45.00100    8.66500   21.56500
      O    O544    45.30100    9.12500   20.45600
      C    C545    44.31900   10.15600   23.55200
      C    C546    45.40900   11.15600   23.08300
      C    C547    43.12700   10.87800   24.19000
      N    N548    45.64200    7.62700   22.09200
      C    C549    46.68300    6.91100   21.34200
      C    C550    46.16100    6.33700   20.02300
      O    O551    46.82900    6.43100   18.98500
      C    C552    47.28300    5.79000   22.20200
      C    C553    48.42300    4.99200   21.58400
      C    C554    49.55900    5.89600   21.15900
      C    C555    48.93600    3.93500   22.56900
      N    N556    44.97800    5.72000   20.06900
      C    C557    44.34300    5.19800   18.86500
      C    C558    44.16900    6.30300   17.83300
      O    O559    44.52600    6.13000   16.65800
      C    C560    42.99900    4.56200   19.19200
      C    C561    43.12300    3.21300   19.93200
      S    S562    41.53500    2.62500   20.50000
      C    C563    40.60300    2.49800   18.94300
      N    N564    43.64300    7.44000   18.27900
      C    C565    43.38000    8.55300   17.36200
      C    C566    44.70200    9.09500   16.80000
      O    O567    44.83600    9.27600   15.59200
      C    C568    42.50000    9.62500   18.03800
      C    C569    41.07800    9.06700   18.17900
      C    C570    42.52100   10.95400   17.24600
      C    C571    40.15900    9.87000   19.03400
      N    N572    45.68900    9.27700   17.66800
      C    C573    47.02000    9.70200   17.23100
      C    C574    47.56600    8.84200   16.09100
      O    O575    48.03600    9.39600   15.09200
      C    C576    48.00700    9.72500   18.39100
      O    O577    49.31100   10.00300   17.90800
      N    N578    47.50600    7.51300   16.23900
      C    C579    48.01500    6.56500   15.23500
      C    C580    47.02100    6.21200   14.10600
      O    O581    47.34800    5.44700   13.18400
      C    C582    48.51700    5.27900   15.92500
      C    C583    49.92300    5.37600   16.54900
      C    C584    51.07100    5.39200   15.53200
      N    N585    50.99300    4.23000   14.64100
      C    C586    51.66100    3.09100   14.82500
      N    N587    52.49200    2.95500   15.85300
      N    N588    51.51400    2.09300   13.96400
      N    N589    45.81300    6.76300   14.16500
      C    C590    44.80600    6.48800   13.13700
      C    C591    44.14800    5.11300   13.17300
      O    O592    43.76100    4.57200   12.13300
      N    N593    44.00600    4.54100   14.37100
      C    C594    43.25600    3.30500   14.54100
      C    C595    41.78200    3.59000   14.80000
      O    O596    41.44600    4.50200   15.57300
      C    C597    43.80100    2.48400   15.71700
      C    C598    45.11100    1.71600   15.53200
      C    C599    45.48600    1.08700   16.87600
      C    C600    44.97300    0.63600   14.46900
      N    N601    40.92500    2.79400   14.16200
      C    C602    39.47200    2.84400   14.37800
      C    C603    39.06600    1.87300   15.48500
      O    O604    39.86600    1.03600   15.89800
      C    C605    38.74100    2.48400   13.08600
      O    O606    38.80800    1.08500   12.85700
      N    N607    37.82700    1.99300   15.96300
      C    C608    37.25900    1.02300   16.89900
      C    C609    37.28000   -0.37600   16.29200
      O    O610    37.75700   -1.33000   16.92400
      C    C611    35.82600    1.41600   17.31800
      C    C612    35.70400    2.54500   18.34900
      C    C613    34.24600    2.80700   18.69600
      C    C614    36.52100    2.27400   19.62100
      N    N615    36.79200   -0.48600   15.05300
      C    C616    36.82400   -1.74800   14.30500
      C    C617    38.20200   -2.40500   14.24700
      O    O618    38.31900   -3.62200   14.41400
      C    C619    36.30400   -1.54800   12.87600
      C    C620    36.00700   -2.86100   12.18100
      O    O621    36.55700   -3.10500   11.07900
      O    O622    35.24600   -3.72200   12.67500
      N    N623    39.23800   -1.60200   14.01500
      C    C624    40.60000   -2.11700   13.94100
      C    C625    40.93900   -2.89900   15.21400
      O    O626    41.49600   -3.98800   15.14900
      C    C627    41.60400   -0.97600   13.75400
      C    C628    41.53600   -0.33800   12.36400
      O    O629    41.98000    0.82300   12.23000
      O    O630    41.06300   -0.91300   11.36200
      N    N631    40.57700   -2.33700   16.36600
      C    C632    40.84500   -2.96400   17.66300
      C    C633    39.88800   -4.13200   17.91100
      O    O634    40.32800   -5.26500   18.14700
      C    C635    40.81800   -1.91100   18.81600
      C    C636    40.85400   -2.59700   20.20000
      C    C637    42.00700   -0.95400   18.67300
      N    N638    38.59000   -3.85100   17.82100
      C    C639    37.53600   -4.83800   18.06900
      C    C640    37.64100   -6.11900   17.24400
      O    O641    37.34100   -7.20500   17.75000
      C    C642    36.15600   -4.20900   17.88800
      C    C643    35.78400   -3.18000   18.94000
      C    C644    36.58100   -2.98200   20.07100
      C    C645    34.61100   -2.43200   18.82200
      C    C646    36.23600   -2.05500   21.03600
      C    C647    34.25100   -1.50300   19.78900
      C    C648    35.07100   -1.32100   20.89100
      O    O649    34.74000   -0.40900   21.86000
      N    N650    38.06900   -5.99500   15.98500
      C    C651    38.28100   -7.17200   15.13500
      C    C652    39.34900   -8.13400   15.66000
      O    O653    39.40000   -9.29900   15.25100
      C    C654    38.55700   -6.76600   13.68100
      C    C655    37.26200   -6.44800   12.92800
      C    C656    37.41400   -6.15700   11.44900
      N    N657    38.32700   -5.04800   11.20200
      C    C658    39.48200   -5.15200   10.55800
      N    N659    39.87400   -6.32400   10.06900
      N    N660    40.24200   -4.07100   10.39000
      N    N661    40.18600   -7.65500   16.57600
      C    C662    41.20900   -8.50200   17.18400
      C    C663    40.73100   -9.12100   18.50500
      O    O664    41.39000   -9.99300   19.06600
      C    C665    42.51000   -7.72100   17.35600
      C    C666    42.86800   -6.95000   16.10200
      C    C667    44.34400   -6.88600   15.86500
      C    C668    44.63900   -6.68000   14.39000
      N    N669    44.59200   -7.96200   13.64900
      N    N670    39.57500   -8.66500   18.97600
      C    C671    38.94000   -9.20800   20.17900
      C    C672    38.06900  -10.41400   19.85200
      O    O673    37.59200  -11.09600   20.75900
      C    C674    38.09600   -8.13400   20.87000
      C    C675    38.83300   -6.94700   21.48800
      C    C676    37.85300   -5.82100   21.78100
      C    C677    39.58800   -7.37200   22.74500
