# CIF file generated by openbabel 2.3.2, see http://openbabel.sf.net
data_I
_chemical_name_common '../proteins/pdb/3CAG.pdb'
_cell_length_a 57.745
_cell_length_b 75.648
_cell_length_c 108.022
_cell_angle_alpha 90
_cell_angle_beta 90
_cell_angle_gamma 90
_space_group_name_H-M_alt 'P 21 21 21'
_space_group_name_Hall 'P 2ac 2ab'
loop_
    _symmetry_equiv_pos_as_xyz
    'x,y,z'
    '1/2-x,-y,1/2+z'
    '-x,1/2+y,1/2-z'
    '1/2+x,1/2-y,-z'
loop_
    _atom_site_type_symbol
    _atom_site_label
    _atom_site_Cartn_x
    _atom_site_Cartn_y
    _atom_site_Cartn_z
      N    N1    -9.33800  -17.72500  -19.81200
      C    C2   -10.40800  -17.41000  -20.79700
      C    C3    -9.84000  -17.10500  -22.21000
      O    O4    -8.87800  -16.33300  -22.38600
      C    C5   -11.40200  -16.33500  -20.23400
      O    O6   -12.68900  -16.92400  -20.03100
      C    C7   -11.59700  -15.20300  -21.15600
      N    N8   -10.43400  -17.73700  -23.21700
      C    C9   -10.02700  -17.49100  -24.59500
      C    C10   -10.60900  -16.15400  -25.09000
      O    O11   -10.07300  -15.53200  -26.02000
      C    C12   -10.35500  -18.69900  -25.50100
      C    C13   -11.49300  -18.43000  -26.47800
      O    O14   -11.24200  -18.53400  -27.70800
      O    O15   -12.62900  -18.11900  -26.02300
      N    N16   -11.69100  -15.70000  -24.45700
      C    C17   -12.22400  -14.37100  -24.75900
      C    C18   -11.21800  -13.26000  -24.38400
      O    O19   -11.02000  -12.30300  -25.14000
      C    C20   -13.55800  -14.12200  -24.05400
      C    C21   -14.07600  -12.72600  -24.31400
      C    C22   -15.52800  -12.54100  -23.90600
      N    N23   -16.10900  -11.36600  -24.56000
      C    C24   -15.92700  -10.10600  -24.15600
      N    N25   -15.16800   -9.84200  -23.10000
      N    N26   -16.51000   -9.10500  -24.80800
      N    N27   -10.59300  -13.39800  -23.21800
      C    C28    -9.54700  -12.46800  -22.80000
      C    C29    -8.36400  -12.56200  -23.78600
      O    O30    -7.82100  -11.53200  -24.21200
      C    C31    -9.07700  -12.77300  -21.38300
      C    C32    -7.84900  -11.96300  -20.94900
      S    S33    -7.15000  -12.51600  -19.38100
      C    C34    -6.29600  -14.04200  -19.86700
      N    N35    -7.96700  -13.79100  -24.14200
      C    C36    -6.85100  -13.99500  -25.08600
      C    C37    -7.10000  -13.28500  -26.43600
      O    O38    -6.21300  -12.63500  -26.97300
      C    C39    -6.53200  -15.50200  -25.28700
      N    N40    -8.31400  -13.34700  -26.95100
      C    C41    -8.60500  -12.65100  -28.20900
      C    C42    -8.52700  -11.12000  -28.09000
      O    O43    -8.00100  -10.44100  -28.99200
      C    C44    -9.95500  -13.08100  -28.76800
      C    C45   -10.12600  -14.60000  -29.09500
      C    C46   -11.55800  -14.88600  -29.61600
      N    N47   -12.47700  -13.82700  -29.17600
      C    C48   -12.62400  -12.64400  -29.78100
      N    N49   -13.46300  -11.73700  -29.27800
      N    N50   -11.94100  -12.36300  -30.88900
      N    N51    -9.01600  -10.56300  -26.97300
      C    C52    -8.97400   -9.09900  -26.81200
      C    C53    -7.57500   -8.59100  -26.52000
      O    O54    -7.23300   -7.47200  -26.90600
      C    C55   -10.00400   -8.57000  -25.79400
      C    C56   -11.46100   -8.78600  -26.18500
      C    C57   -12.38600   -8.11400  -25.16800
      C    C58   -11.76800   -8.25900  -27.57600
      N    N59    -6.75200   -9.41500  -25.87500
      C    C60    -5.33900   -9.07700  -25.73300
      C    C61    -4.68000   -9.03000  -27.12000
      O    O62    -3.93300   -8.10000  -27.46200
      C    C63    -4.61900  -10.08900  -24.83200
      C    C64    -5.00000  -10.08700  -23.35400
      C    C65    -4.55900  -11.40500  -22.74100
      C    C66    -4.35600   -8.86000  -22.64100
      N    N67    -4.97100  -10.03800  -27.92600
      C    C68    -4.48500  -10.04400  -29.31000
      C    C69    -4.86200   -8.76800  -30.02300
      O    O70    -4.05000   -8.14700  -30.70600
      N    N71    -6.11000   -8.35600  -29.83000
      C    C72    -6.64300   -7.17500  -30.46200
      C    C73    -6.16100   -5.84200  -29.88200
      O    O74    -5.89000   -4.91400  -30.63700
      C    C75    -8.16500   -7.22700  -30.42100
      C    C76    -8.81800   -6.07000  -31.16400
      C    C77   -10.32600   -6.03900  -31.00000
      O    O78   -10.93100   -4.95900  -31.21900
      O    O79   -10.89700   -7.08300  -30.64700
      N    N80    -6.04000   -5.75300  -28.55000
      C    C81    -5.95100   -4.42400  -27.88300
      C    C82    -4.70100   -4.17800  -27.05400
      O    O83    -4.47200   -3.05300  -26.62200
      C    C84    -7.18000   -4.21300  -26.96800
      C    C85    -8.59100   -4.28700  -27.57700
      C    C86    -9.65500   -4.26000  -26.46900
      C    C87    -8.80000   -3.12200  -28.53000
      N    N88    -3.92200   -5.22300  -26.78700
      C    C89    -2.71600   -5.03400  -25.99900
      C    C90    -1.61400   -4.42000  -26.85700
      O    O91    -1.12200   -5.05300  -27.80300
      C    C92    -2.26400   -6.34700  -25.33400
      C    C93    -1.16700   -6.17100  -24.26200
      C    C94    -1.70600   -5.41000  -23.05300
      C    C95    -0.66200   -7.53300  -23.81900
      N    N96    -1.26600   -3.17700  -26.54200
      C    C97    -0.21800   -2.44700  -27.23100
      C    C98     1.16500   -2.78500  -26.63500
      O    O99     2.09500   -3.11100  -27.37000
      C    C100    -0.52700   -0.93500  -27.24600
      C    C101     0.66500   -0.11900  -27.70700
      C    C102    -1.73200   -0.66400  -28.17300
      N    N103     1.29800   -2.69600  -25.31100
      C    C104     2.54000   -3.09500  -24.65100
      C    C105     2.26400   -3.48700  -23.19500
      O    O106     1.15400   -3.23900  -22.67500
      C    C107     3.56300   -1.96500  -24.70700
      O    O108     3.04100   -0.77600  -24.13900
      N    N109     3.26600   -4.11300  -22.56200
      C    C110     3.22100   -4.46700  -21.13800
      C    C111     4.47500   -3.96600  -20.44800
      O    O112     5.53100   -3.78100  -21.08200
      C    C113     3.15500   -5.99400  -20.89500
      O    O114     4.37500   -6.59300  -21.36400
      C    C115     1.97900   -6.63800  -21.59800
      N    N116     4.36700   -3.76500  -19.14000
      C    C117     5.49300   -3.33600  -18.30000
      C    C118     5.09200   -3.68100  -16.86800
      O    O119     4.00000   -4.25700  -16.64800
      C    C120     5.75400   -1.83500  -18.47500
      C    C121     7.22000   -1.44500  -18.24300
      O    O122     7.65100   -0.43100  -18.81500
      O    O123     7.92800   -2.10700  -17.46100
      N    N124     5.96100   -3.38100  -15.89900
      C    C125     5.71900   -3.81200  -14.51600
      C    C126     6.50600   -2.98900  -13.54300
      O    O127     7.50600   -2.34500  -13.91500
      C    C128     6.08700   -5.28600  -14.30500
      C    C129     7.59600   -5.50900  -14.26200
      O    O130     8.14600   -5.79800  -15.34000
      O    O131     8.23500   -5.34800  -13.17500
      N    N132     6.03800   -3.01100  -12.29400
      C    C133     6.79100   -2.49800  -11.16600
      C    C134     6.24800   -3.15400   -9.91900
      O    O135     5.05900   -3.07400   -9.65300
      C    C136     6.64300   -0.99100  -11.05300
      O    O137     7.43400   -0.51300   -9.96600
      N    N138     7.09900   -3.83200   -9.15700
      C    C139     6.63000   -4.42900   -7.90700
      C    C140     5.51200   -5.41000   -8.14200
      O    O141     5.64400   -6.32700   -8.96100
      N    N142     4.39700   -5.21800   -7.44700
      C    C143     3.26700   -6.15400   -7.55700
      C    C144     2.25800   -5.76000   -8.64400
      O    O145     1.13500   -6.23100   -8.63400
      C    C146     2.53300   -6.28800   -6.21200
      C    C147     1.95400   -4.97500   -5.72000
      O    O148     2.36700   -3.87900   -6.14400
      N    N149     0.99100   -5.07400   -4.79000
      N    N150     2.69200   -4.91200   -9.57600
      C    C151     1.81500   -4.36600  -10.60200
      C    C152     2.28300   -4.65900  -12.01200
      O    O153     3.43800   -4.42500  -12.34100
      C    C154     1.71800   -2.83500  -10.47100
      C    C155     1.12900   -2.26700   -9.15900
      C    C156     1.22200   -0.75100   -9.19000
      C    C157    -0.33300   -2.71400   -8.97700
      N    N158     1.35300   -5.12900  -12.83000
      C    C159     1.53900   -5.16700  -14.28000
      C    C160     0.79200   -3.95300  -14.83800
      O    O161    -0.33300   -3.65500  -14.41700
      C    C162     0.99500   -6.46800  -14.85600
      N    N163     1.43500   -3.26200  -15.78000
      C    C164     0.89900   -2.06500  -16.37400
      C    C165     0.63600   -2.42600  -17.85300
      O    O166     1.57200   -2.78100  -18.58900
      C    C167     1.89000   -0.89000  -16.25700
      C    C168     1.31000    0.37700  -16.92200
      C    C169     2.23200   -0.57800  -14.77200
      N    N170    -0.62700   -2.40800  -18.26200
      C    C171    -0.97400   -2.76200  -19.64900
      C    C172    -1.40800   -1.49800  -20.39200
      O    O173    -2.12000   -0.66500  -19.81200
      C    C174    -2.08800   -3.83000  -19.68300
      C    C175    -1.94700   -5.13900  -18.88800
      C    C176    -3.12000   -6.11400  -19.17700
      C    C177    -0.64400   -5.83700  -19.13000
      N    N178    -0.96500   -1.34600  -21.64700
      C    C179    -1.34200   -0.20200  -22.48700
      C    C180    -2.22400   -0.69200  -23.62300
      O    O181    -2.01600   -1.80100  -24.16800
      C    C182    -0.14100    0.51900  -23.10600
      C    C183     0.93000    1.03400  -22.13500
      C    C184     0.31500    1.97800  -21.11600
      N    N185    -0.31000    3.17100  -21.70300
      C    C186     0.34800    4.28400  -22.02200
      N    N187     1.67300    4.35800  -21.85500
      N    N188    -0.30900    5.32700  -22.51000
      N    N189    -3.20300    0.15100  -23.96600
      C    C190    -4.20100   -0.12600  -25.00200
      C    C191    -4.32900    1.13800  -25.89300
      O    O192    -3.82800    2.20300  -25.53600
      C    C193    -5.59900   -0.44400  -24.39400
      O    O194    -6.16700    0.77200  -23.87100
      C    C195    -5.52100   -1.52100  -23.27800
      N    N196    -5.02900    1.03300  -27.03700
      C    C197    -5.33300    2.25300  -27.77700
      C    C198    -6.22900    3.16500  -26.92000
      O    O199    -6.88900    2.66300  -25.99100
      C    C200    -6.11300    1.74500  -29.00700
      C    C201    -5.79300    0.29100  -29.10700
      C    C202    -5.55500   -0.17200  -27.69700
      N    N203    -6.21600    4.49300  -27.18500
      C    C204    -7.12000    5.41400  -26.45300
      C    C205    -8.56700    4.91600  -26.36200
      O    O206    -9.16500    4.47100  -27.36600
      C    C207    -7.01300    6.72200  -27.23100
      C    C208    -5.67300    6.64600  -27.94800
      C    C209    -5.30000    5.20700  -28.09600
      N    N210    -9.09100    4.93400  -25.13400
      C    C211   -10.48400    4.57800  -24.87500
      C    C212   -10.74400    3.09700  -24.69700
      O    O213   -11.83200    2.72800  -24.29700
      N    N214    -9.75600    2.24200  -24.96700
      C    C215    -9.99000    0.79000  -24.97400
      C    C216    -9.74900    0.06400  -23.62400
      O    O217   -10.06600   -1.12600  -23.49000
      C    C218    -9.16700    0.10800  -26.07900
      N    N219    -9.16100    0.76600  -22.65300
      C    C220    -8.72700    0.15200  -21.39300
      C    C221    -9.82100   -0.53100  -20.59800
      O    O222    -9.61200   -1.63700  -20.09700
      C    C223    -7.99000    1.18200  -20.50300
      N    N224   -10.98800    0.09700  -20.46800
      C    C225   -12.11200   -0.53000  -19.72900
      C    C226   -12.63000   -1.81100  -20.36300
      O    O227   -12.94500   -2.78900  -19.66100
      C    C228   -13.25200    0.45900  -19.47900
      C    C229   -13.29400    0.45300  -19.62600
      C    C230   -13.21200    1.02100  -18.10200
      C    C231   -12.88900    1.86900  -19.36000
      N    N232   -12.63300    2.23600  -17.81600
      N    N233   -12.58100    2.33000  -18.10200
      C    C234   -13.57000    0.47900  -16.91100
      C    C235   -12.73200    2.92200  -20.19500
      C    C236   -12.71500    2.45100  -16.51500
      C    C237   -12.27400    3.61200  -18.16500
      N    N238   -13.27300    1.39200  -15.94700
      N    N239   -12.34300    3.99200  -19.42800
      N    N240   -12.68700   -1.80800  -21.69600
      C    C241   -13.15500   -2.99200  -22.43800
      C    C242   -12.22200   -4.19700  -22.22900
      O    O243   -12.67900   -5.30600  -21.91100
      C    C244   -13.23700   -2.66900  -23.91600
      C    C245   -13.95800   -3.74100  -24.73000
      C    C246   -13.49100   -4.13200  -25.99300
      C    C247   -15.12200   -4.33400  -24.24500
      C    C248   -14.16100   -5.11800  -26.72900
      C    C249   -15.79000   -5.29900  -24.96800
      C    C250   -15.30600   -5.68500  -26.19600
      O    O251   -16.02400   -6.63000  -26.88000
      N    N252   -10.92000   -3.98000  -22.40500
      C    C253    -9.95500   -5.05300  -22.17200
      C    C254    -9.94400   -5.51200  -20.70500
      O    O255    -9.89100   -6.72700  -20.43800
      C    C256    -8.54800   -4.63600  -22.63300
      C    C257    -7.44700   -5.68700  -22.38400
      C    C258    -7.75400   -7.04400  -23.04700
      C    C259    -6.10100   -5.14300  -22.89200
      N    N260    -9.94000   -4.55300  -19.77200
      C    C261    -9.94200   -4.87700  -18.31100
      C    C262   -11.15300   -5.71500  -17.91800
      O    O263   -11.05600   -6.59100  -17.07100
      C    C264    -9.88700   -3.60100  -17.46700
      N    N265   -12.29600   -5.41500  -18.52900
      C    C266   -13.51400   -6.19800  -18.29500
      C    C267   -13.26900   -7.67300  -18.64200
      O    O268   -13.60700   -8.57500  -17.84500
      C    C269   -14.70500   -5.59800  -19.05300
      O    O270   -15.82400   -6.46900  -18.99700
      N    N271   -12.62300   -7.93200  -19.78400
      C    C272   -12.35500   -9.32800  -20.17800
      C    C273   -11.36600  -10.01300  -19.22700
      O    O274   -11.52600  -11.20100  -18.91000
      C    C275   -11.84800   -9.41100  -21.61600
      N    N276   -10.36300   -9.26900  -18.76500
      C    C277    -9.44800   -9.76100  -17.73400
      C    C278   -10.17700  -10.11700  -16.43600
      O    O279    -9.97600  -11.21600  -15.88200
      C    C280    -8.31800   -8.75900  -17.45200
      C    C281    -7.40600   -8.64400  -18.68000
      C    C282    -7.46400   -9.23200  -16.28500
      C    C283    -6.48700   -7.44900  -18.63700
      N    N284   -11.03100   -9.20500  -15.96000
      C    C285   -11.83100   -9.44400  -14.74400
      C    C286   -12.64400  -10.72400  -14.90000
      O    O287   -12.65600  -11.58600  -13.99900
      C    C288   -12.78200   -8.27200  -14.43600
      C    C289   -12.06100   -7.04300  -13.93200
      O    O290   -12.65500   -5.92300  -13.99500
      O    O291   -10.89800   -7.17200  -13.48200
      N    N292   -13.29600  -10.86000  -16.05100
      C    C293   -14.13500  -12.03500  -16.32600
      C    C294   -13.35800  -13.36500  -16.43100
      O    O295   -13.91500  -14.43100  -16.18000
      C    C296   -15.03100  -11.77000  -17.54800
      C    C297   -16.06400  -10.61200  -17.29400
      C    C298   -16.88400  -10.28900  -18.54100
      N    N299   -17.87200   -9.21600  -18.34100
      C    C300   -18.61800   -8.70000  -19.32700
      N    N301   -18.47600   -9.15100  -20.56800
      N    N302   -19.50400   -7.73700  -19.08600
      N    N303   -12.07400  -13.30100  -16.78000
      C    C304   -11.23900  -14.49400  -16.85100
      C    C305   -10.99500  -15.05400  -15.44600
      O    O306   -10.69300  -16.24800  -15.28300
      C    C307    -9.91800  -14.18700  -17.55100
      N    N308   -11.12300  -14.18700  -14.44000
      C    C309   -10.95700  -14.56000  -13.02800
      C    C310    -9.67900  -15.37300  -12.82400
      O    O311    -9.73800  -16.52000  -12.37100
      C    C312   -12.18600  -15.33700  -12.51500
      N    N313    -8.53900  -14.76700  -13.16800
      C    C314    -7.22700  -15.39300  -13.04200
      C    C315    -6.83000  -15.52900  -11.58400
      O    O316    -6.95800  -14.57300  -10.82400
      C    C317    -6.18700  -14.58100  -13.77600
      C    C318    -6.51700  -14.39900  -15.25500
      C    C319    -5.42200  -13.59500  -15.89500
      C    C320    -6.70500  -15.75400  -15.93800
      N    N321    -6.37700  -16.73200  -11.18700
      C    C322    -6.02400  -16.96200   -9.78100
      C    C323    -4.93900  -16.02300   -9.25500
      O    O324    -4.96500  -15.68800   -8.07800
      C    C325    -5.52000  -18.41800   -9.76700
      C    C326    -6.01100  -19.03400  -11.00600
      C    C327    -6.22100  -17.95000  -12.01300
      N    N328    -3.98300  -15.61200  -10.08700
      C    C329    -2.91300  -14.76200   -9.57600
      C    C330    -3.13700  -13.26400   -9.78600
      O    O331    -2.22600  -12.46100   -9.60800
      C    C332    -1.52400  -15.22200  -10.08300
      C    C333    -1.17300  -16.67400   -9.63800
      C    C334    -1.30400  -16.92100   -8.11600
      O    O335    -0.68900  -16.22500   -7.29100
      N    N336    -2.08800  -17.94400   -7.75100
      N    N337    -4.36500  -12.91200  -10.14700
      C    C338    -4.80700  -11.51400  -10.28300
      C    C339    -5.78200  -11.18700   -9.14100
      O    O340    -6.85500  -11.80100   -9.00700
      C    C341    -5.45400  -11.24900  -11.67600
      C    C342    -6.07600   -9.84400  -11.74800
      C    C343    -4.41000  -11.36800  -12.81600
      N    N344    -5.40200  -10.22600   -8.31100
      C    C345    -6.30400   -9.71200   -7.25800
      C    C346    -7.39700   -8.79500   -7.82000
      O    O347    -8.54200   -8.84100   -7.38000
      C    C348    -5.52500   -8.98400   -6.15000
      C    C349    -6.45800   -8.51500   -5.04700
      C    C350    -4.49100   -9.93100   -5.55200
      N    N351    -7.05500   -7.93500   -8.76800
      C    C352    -8.08900   -7.10800   -9.38800
      C    C353    -7.47100   -6.22300  -10.44700
      O    O354    -6.22800   -6.16800  -10.56400
      N    N355    -8.31500   -5.50800  -11.20100
      C    C356    -7.81900   -4.48600  -12.15900
      C    C357    -8.48500   -3.10500  -11.97700
      O    O358    -9.62000   -3.03500  -11.52900
      C    C359    -8.12900   -4.92800  -13.62500
      O    O360    -9.54300   -4.91200  -13.84400
      C    C361    -7.61200   -6.34400  -13.90200
      N    N362    -7.78900   -2.01700  -12.31700
      C    C363    -8.43500   -0.72000  -12.56500
      C    C364    -8.02500   -0.22000  -13.94400
      O    O365    -6.84400   -0.24200  -14.27700
      C    C366    -7.99400    0.35200  -11.54200
      C    C367    -8.09200    0.38100  -11.53100
      C    C368    -8.06700   -0.18200  -10.10000
      C    C369    -6.64300    0.27000  -11.03700
      C    C370    -8.78300    1.66700  -11.75800
      C    C371    -9.11600    0.40400  -10.39800
      C    C372    -9.37100    0.08200   -9.39500
      C    C373    -6.16300    1.53400  -10.30400
      N    N374    -9.00700    0.22200  -14.72300
      C    C375    -8.79700    0.76600  -16.05600
      C    C376    -8.88500    2.27200  -16.01500
      O    O377    -9.76400    2.82300  -15.32600
      C    C378    -9.85100    0.21300  -17.03300
      N    N379    -7.95100    2.93200  -16.71100
      C    C380    -8.00300    4.37600  -16.97400
      C    C381    -8.50100    4.50200  -18.40500
      O    O382    -9.42700    3.77400  -18.81300
      N    N383    -7.88600    5.36100  -19.20100
      C    C384    -8.34500    5.49500  -20.59900
      C    C385    -7.56300    4.60000  -21.58000
      O    O386    -8.14400    4.03800  -22.51500
      C    C387    -8.23500    6.93100  -21.05500
      C    C388    -8.90000    7.16800  -22.41800
      O    O389    -8.17500    7.47600  -23.38000
      O    O390   -10.14200    7.06100  -22.51700
      N    N391    -6.24900    4.50300  -21.35700
      C    C392    -5.33100    3.79300  -22.25900
      C    C393    -4.34300    2.92200  -21.45300
      O    O394    -3.37900    2.35000  -22.01900
      C    C395    -4.58100    4.78900  -23.18200
      C    C396    -3.66500    5.78300  -22.42300
      O    O397    -3.20000    5.50400  -21.28100
      O    O398    -3.39000    6.87200  -22.98100
      N    N399    -4.59700    2.81600  -20.14800
      C    C400    -3.71100    2.07500  -19.24300
      C    C401    -4.56700    1.24600  -18.29500
      O    O402    -5.60700    1.72700  -17.78300
      C    C403    -2.82200    3.04100  -18.41600
      O    O404    -2.06400    3.90600  -19.30000
      C    C405    -1.83600    2.26500  -17.50400
      N    N406    -4.13700    0.00400  -18.04900
      C    C407    -4.73600   -0.81200  -17.00700
      C    C408    -3.66700   -1.15600  -15.97300
      O    O409    -2.57100   -1.55300  -16.35400
      C    C410    -5.34300   -2.14400  -17.55800
      C    C411    -6.35400   -1.86200  -18.67400
      C    C412    -6.01900   -2.93500  -16.41400
      C    C413    -6.61200   -3.10900  -19.62900
      N    N414    -3.99500   -1.03300  -14.69400
      C    C415    -3.18000   -1.62100  -13.61300
      C    C416    -3.76700   -2.94400  -13.21500
      O    O417    -4.96700   -3.03500  -12.85400
      C    C418    -3.15000   -0.72400  -12.37000
      C    C419    -2.36500    0.57400  -12.27900
      C    C420    -2.14300    0.93600  -10.77200
      C    C421    -1.01500    0.54000  -13.06100
      N    N422    -2.91800   -3.97400  -13.21600
      C    C423    -3.34000   -5.30900  -12.81700
      C    C424    -2.56200   -5.71000  -11.56600
      O    O425    -1.33700   -5.71400  -11.58600
      C    C426    -3.11100   -6.35200  -13.91200
      C    C427    -3.74800   -7.68100  -13.48600
      C    C428    -3.69200   -5.88900  -15.26200
      N    N429    -3.26200   -6.03300  -10.48000
      C    C430    -2.59700   -6.23600   -9.19100
      C    C431    -2.28300   -7.73100   -9.00600
      O    O432    -3.16900   -8.56400   -9.08800
      C    C433    -3.48000   -5.73000   -7.99500
      C    C434    -2.72900   -5.92000   -6.65800
      C    C435    -3.88800   -4.25800   -8.19400
      N    N436    -1.01600   -8.05200   -8.74700
      C    C437    -0.58300   -9.44100   -8.59200
      C    C438    -0.84500   -9.93200   -7.19300
      O    O439    -0.54400   -9.22800   -6.22200
      C    C440     0.89000   -9.57200   -8.88800
      N    N441    -1.36200  -11.14900   -7.11200
      C    C442    -1.56900  -11.87400   -5.84600
      C    C443    -0.27500  -12.49300   -5.34600
      O    O444     0.31000  -13.34400   -6.01800
      C    C445    -2.61200  -12.98100   -6.03500
      C    C446    -2.95400  -13.72900   -4.73200
      C    C447    -3.99900  -14.82600   -4.93800
      N    N448    -5.22400  -14.31400   -5.54300
      C    C449    -6.09200  -13.50000   -4.94200
      N    N450    -7.17200  -13.08600   -5.60900
      N    N451    -5.87500  -13.06500   -3.70300
      N    N452     0.15900  -12.06300   -4.16100
      C    C453     1.35600  -12.57200   -3.48000
      C    C454     1.38100  -14.10800   -3.55500
      O    O455     0.35000  -14.74100   -3.35600
      C    C456     1.36400  -12.05800   -2.01400
      C    C457     1.36700  -10.49300   -1.92000
      C    C458     0.75000   -9.87000   -0.63200
      O    O459     1.32400   -8.87100   -0.13000
      O    O460    -0.31500  -10.33100   -0.13200
      N    N461     2.54900  -14.71700   -3.88400
      C    C462     3.86600  -14.11800   -4.10800
      C    C463     4.16600  -13.77400   -5.58400
      O    O464     5.28500  -13.34100   -5.87800
      C    C465     4.82100  -15.22700   -3.63400
      C    C466     4.09300  -16.51300   -3.95000
      C    C467     2.59900  -16.18700   -4.05200
      N    N468     3.19500  -13.96800   -6.48400
      C    C469     3.34700  -13.58900   -7.90300
      C    C470     3.72600  -12.11300   -8.03900
      O    O471     3.14600  -11.25300   -7.36400
      C    C472     2.05600  -13.84200   -8.73500
      O    O473     1.61600  -15.18200   -8.56800
      C    C474     2.29500  -13.62600  -10.20100
      N    N475     4.68200  -11.82200   -8.92200
      C    C476     5.11500  -10.45600   -9.18100
      C    C477     4.44400   -9.83900  -10.40000
      O    O478     3.92700  -10.54500  -11.25500
      C    C479     6.62600  -10.38100   -9.40500
      O    O480     6.94600  -10.92000  -10.70800
      C    C481     7.36400  -11.14200   -8.28400
      N    N482     4.48800   -8.51000  -10.46800
      C    C483     4.05100   -7.77400  -11.65300
      C    C484     4.72100   -8.26300  -12.91900
      O    O485     4.06700   -8.42600  -13.93800
      N    N486     6.02800   -8.51900  -12.84000
      C    C487     6.81800   -9.03000  -13.96800
      C    C488     6.26700  -10.35300  -14.48800
      O    O489     6.13300  -10.56100  -15.69300
      C    C490     8.31100   -9.18100  -13.54800
      N    N491     5.92100  -11.24800  -13.57100
      C    C492     5.36200  -12.53100  -13.95800
      C    C493     4.01600  -12.36900  -14.64800
      O    O494     3.72300  -13.06800  -15.61500
      C    C495     5.22500  -13.44200  -12.74600
      C    C496     6.54900  -14.06700  -12.31000
      C    C497     6.41200  -14.83200  -11.01800
      O    O498     6.03700  -14.27000   -9.98500
      N    N499     6.73500  -16.13500  -11.06100
      N    N500     3.19200  -11.44100  -14.14600
      C    C501     1.90300  -11.18300  -14.78600
      C    C502     2.09800  -10.59000  -16.17600
      O    O503     1.43200  -11.01700  -17.12500
      C    C504     1.03000  -10.24600  -13.94100
      C    C505     0.27700  -10.74000  -12.71000
      C    C506    -0.64500   -9.60400  -12.20700
      C    C507    -0.54000  -12.01700  -13.00600
      N    N508     3.00800   -9.62000  -16.29700
      C    C509     3.22900   -8.95300  -17.58800
      C    C510     3.68300   -9.97100  -18.60400
      O    O511     3.22600   -9.94900  -19.73300
      C    C512     4.22700   -7.80900  -17.48700
      N    N513     4.54600  -10.89500  -18.18700
      C    C514     5.01900  -11.97300  -19.07700
      C    C515     3.89100  -12.88000  -19.53300
      O    O516     3.82000  -13.24800  -20.71000
      N    N517     2.97500  -13.19800  -18.61800
      C    C518     1.80100  -13.99900  -18.93900
      C    C519     0.90900  -13.29800  -19.97200
      O    O520     0.44000  -13.94800  -20.91400
      C    C521     1.02300  -14.35300  -17.66600
      C    C522    -0.26700  -15.13700  -17.86700
      S    S523    -1.70900  -14.12700  -18.27000
      S    S524    -1.29100  -15.16800  -16.36000
      C    C525    -1.82000  -13.10700  -16.79200
      C    C526    -1.68000  -13.43300  -16.13000
      N    N527     0.69300  -11.98600  -19.80700
      C    C528    -0.12500  -11.23800  -20.75500
      C    C529     0.56400  -11.12700  -22.12100
      O    O530    -0.09000  -11.26200  -23.16100
      C    C531    -0.46800   -9.84700  -20.22800
      C    C532    -1.48600   -9.85300  -19.12200
      C    C533    -1.17600   -9.29300  -17.87800
      C    C534    -2.75300  -10.41300  -19.32200
      C    C535    -2.10600   -9.29800  -16.84400
      C    C536    -3.70900  -10.41500  -18.28000
      C    C537    -3.37800   -9.86400  -17.05100
      N    N538     1.86900  -10.87500  -22.11600
      C    C539     2.66700  -10.95500  -23.36200
      C    C540     2.49300  -12.27900  -24.12700
      O    O541     2.32000  -12.27900  -25.34200
      C    C542     4.15000  -10.70700  -23.08000
      C    C543     4.49400   -9.26600  -22.83000
      C    C544     4.40900   -8.37500  -24.08400
      O    O545     4.39300   -7.13100  -23.92800
      O    O546     4.36500   -8.90500  -25.22300
      N    N547     2.51800  -13.39800  -23.41200
      C    C548     2.41200  -14.71100  -24.03000
      C    C549     1.08300  -14.93300  -24.75900
      O    O550     1.07100  -15.13600  -25.98600
      C    C551     2.63300  -15.81000  -22.99400
      C    C552     2.57500  -17.18700  -23.59900
      O    O553     3.16200  -17.43300  -24.65900
      N    N554     1.86700  -18.10500  -22.93600
      N    N555    -0.01900  -14.89000  -23.99600
      C    C556    -1.40300  -15.01000  -24.51100
      C    C557    -1.69600  -14.22100  -25.79000
      O    O558    -2.40700  -14.71600  -26.67200
      C    C559    -2.39500  -14.59100  -23.42700
      C    C560    -3.20700  -15.67200  -22.71800
      C    C561    -2.68600  -17.10500  -22.96900
      C    C562    -3.27700  -15.37900  -21.23500
      N    N563    -1.15200  -13.00300  -25.86400
      C    C564    -1.28600  -12.07400  -27.00200
      C    C565    -1.16900  -12.77400  -28.38600
      O    O566    -0.63900  -13.89100  -28.56300
      C    C567    -0.20900  -10.99000  -26.86400
      C    C568    -0.27100  -10.93000  -26.87700
      C    C569    -0.52000   -9.63100  -27.46000
      C    C570    -0.23500   -9.98100  -28.06100
      C    C571     0.03900   -9.48100  -28.86700
      C    C572     1.05600   -9.18800  -28.11000
      N    N573    -1.00000   -9.63300  -29.87800
      N    N574     0.97900   -7.95500  -27.33700
      C    C575    -0.79700   -9.58900  -31.19200
      C    C576     1.97000   -7.07500  -27.22200
      N    N577     0.42200   -9.40700  -31.68400
      N    N578     1.79800   -5.99100  -26.49300
      N    N579    -1.82100   -9.73200  -32.01900
      N    N580     3.13400   -7.27800  -27.82800
      O    O581    -1.62100  -12.24000  -29.40600
