# CIF file generated by openbabel 2.3.2, see http://openbabel.sf.net
data_I
_chemical_name_common '../proteins/pdb/3CTO.pdb'
_cell_length_a 65.003
_cell_length_b 64.573
_cell_length_c 83.518
_cell_angle_alpha 90
_cell_angle_beta 90
_cell_angle_gamma 90
_space_group_name_H-M_alt 'P 21 21 21'
_space_group_name_Hall 'P 2ac 2ab'
loop_
    _symmetry_equiv_pos_as_xyz
    'x,y,z'
    '1/2-x,-y,1/2+z'
    '-x,1/2+y,1/2-z'
    '1/2+x,1/2-y,-z'
loop_
    _atom_site_type_symbol
    _atom_site_label
    _atom_site_Cartn_x
    _atom_site_Cartn_y
    _atom_site_Cartn_z
      N    N1    18.25000    4.47000   47.78700
      C    C2    17.09600    5.38100   48.04500
      C    C3    15.72000    4.84100   47.55400
      O    O4    14.90300    5.56900   46.95200
      C    C5    17.39300    6.78000   47.51800
      C    C6    17.59600    6.89400   46.00600
      S    S7    18.69700    8.29900   45.71000
      C    C8    20.23200    7.42000   45.51000
      N    N9    15.50500    3.54500   47.81400
      C    C10    14.17500    2.94400   47.89700
      C    C11    14.05900    2.17400   49.22800
      O    O12    14.52900    1.04000   49.34000
      C    C13    13.90500    2.01500   46.72700
      O    O14    12.67400    1.34800   46.94900
      N    N15    13.42500    2.77900   50.22900
      C    C16    13.56000    2.27500   51.60100
      C    C17    12.23500    1.98700   52.34200
      O    O18    11.16700    2.45200   51.94100
      C    C19    14.48000    3.22700   52.43900
      C    C20    13.74100    4.52300   52.78500
      C    C21    15.80000    3.54100   51.68400
      C    C22    14.66400    5.70800   53.05700
      N    N23    12.31500    1.20900   53.41800
      C    C24    11.15700    0.98700   54.29800
      C    C25    10.79800    2.25500   55.08400
      O    O26    11.65600    3.12700   55.31800
      C    C27    11.39300   -0.18300   55.25500
      O    O28    12.31300    0.17600   56.25700
      N    N29     9.52900    2.35100   55.48100
      C    C30     9.03800    3.50900   56.22300
      C    C31     9.73300    3.61900   57.56700
      O    O32    10.18200    4.70600   57.96900
      C    C33     7.54300    3.44300   56.39700
      N    N34     9.86500    2.48700   58.24200
      C    C35    10.46300    2.49600   59.56300
      C    C36    11.91500    2.98800   59.48200
      O    O37    12.40500    3.61700   60.41000
      C    C38    10.33900    1.12500   60.25800
      O    O39    11.59800    0.50900   60.38900
      N    N40    12.58300    2.73100   58.36100
      C    C41    13.93600    3.24600   58.14600
      C    C42    13.92300    4.70000   57.70800
      O    O43    14.80500    5.47000   58.06900
      C    C44    14.68500    2.42100   57.11200
      C    C45    16.01500    3.05400   56.74400
      C    C46    16.94800    2.09400   56.08100
      O    O47    17.03000    2.10900   54.82600
      O    O48    17.58500    1.32600   56.82600
      N    N49    12.92900    5.06600   56.91200
      C    C50    12.75400    6.45800   56.53300
      C    C51    12.43000    7.32200   57.76000
      O    O52    12.79000    8.48500   57.81100
      C    C53    11.67000    6.58300   55.47200
      N    N54    11.75200    6.74300   58.74800
      C    C55    11.49700    7.44300   60.00000
      C    C56    12.78700    7.78800   60.77100
      O    O57    12.92700    8.89500   61.30300
      C    C58    10.55800    6.62900   60.88400
      C    C59    10.01400    7.42900   62.01800
      C    C60     8.79300    6.78100   62.61000
      N    N61     9.16400    5.89800   63.70600
      C    C62     8.33700    5.49600   64.66300
      N    N63     7.06400    5.89000   64.68000
      N    N64     8.79500    4.69700   65.61100
      N    N65    13.71900    6.84300   60.83600
      C    C66    14.94700    7.08300   61.57100
      C    C67    15.90900    7.97800   60.78600
      O    O68    16.62800    8.78600   61.35900
      C    C69    15.62400    5.76500   61.94000
      C    C70    16.32000    5.82500   63.28400
      C    C71    17.44100    4.82700   63.38800
      O    O72    18.20000    4.63900   62.43800
      N    N73    17.55600    4.17500   64.54900
      N    N74    15.89600    7.84200   59.46500
      C    C75    16.85900    8.53900   58.63900
      C    C76    16.22800    9.77800   58.04400
      O    O77    16.78300   10.36100   57.13400
      C    C78    17.36900    7.65300   57.50200
      C    C79    17.99500    6.32600   57.84700
      C    C80    18.95300    6.35500   59.05300
      N    N81    20.34300    6.75300   58.76700
      C    C82    21.38500    6.37400   59.51500
      N    N83    21.19000    5.56300   60.55500
      N    N84    22.62100    6.78400   59.22600
      N    N85    15.07500   10.19600   58.54300
      C    C86    14.36000   11.27400   57.86900
      C    C87    15.24000   12.47100   57.59600
      O    O88    15.26400   12.98700   56.46900
      C    C89    13.09200   11.71400   58.61300
      C    C90    12.21900   12.55000   57.66700
      C    C91    11.79200   11.69500   56.47800
      C    C92    11.01800   13.21400   58.35200
      N    N93    15.96300   12.89100   58.63400
      C    C94    16.77600   14.11400   58.59900
      C    C95    17.87400   14.09100   57.52900
      O    O96    17.97400   15.03100   56.75300
      C    C97    17.35700   14.40800   59.99100
      C    C98    16.35200   14.93900   60.98100
      C    C99    16.78000   15.50700   62.17300
      C    C100    14.98600   14.88300   60.72800
      C    C101    15.86500   15.99800   63.09800
      C    C102    14.07700   15.36500   61.64400
      C    C103    14.52300   15.92900   62.83700
      N    N104    18.73000   13.04300   57.51400
      C    C105    19.65000   12.92800   56.37800
      C    C106    18.95600   12.76600   55.02400
      O    O107    19.49200   13.19500   54.00100
      C    C108    20.50800   11.70000   56.72200
      C    C109    19.79400   10.98000   57.79300
      C    C110    18.97700   11.99400   58.53000
      N    N111    17.77500   12.16600   55.01000
      C    C112    17.00700   12.05500   53.75400
      C    C113    16.56700   13.39600   53.18000
      O    O114    16.53500   13.57400   51.96100
      C    C115    15.79600   11.14000   53.93100
      C    C116    16.15700    9.69300   54.23000
      C    C117    14.84400    8.93900   54.46100
      C    C118    17.04100    9.06000   53.12200
      N    N119    16.23300   14.33200   54.05700
      C    C120    15.97900   15.70900   53.65800
      C    C121    17.27400   16.37800   53.13700
      O    O122    17.27200   17.06200   52.11600
      C    C123    15.28600   16.51300   54.80000
      C    C124    13.89200   15.92100   55.04700
      C    C125    15.16900   18.00300   54.45600
      C    C126    13.30700   16.25300   56.42700
      N    N127    18.39500   16.14700   53.79400
      C    C128    19.62000   16.73300   53.27800
      C    C129    19.87600   16.19000   51.87900
      O    O130    20.26700   16.95700   50.96300
      C    C131    20.81800   16.45100   54.19000
      C    C132    22.11200   16.86500   53.52500
      C    C133    23.40100   16.27500   54.14000
      O    O134    23.38000   15.73600   55.27200
      O    O135    24.46000   16.38700   53.47200
      N    N136    19.64900   14.87700   51.71800
      C    C137    20.00800   14.15400   50.48700
      C    C138    19.20500   14.67500   49.29000
      O    O139    19.75400   15.00800   48.23800
      C    C140    19.81400   12.64300   50.65500
      C    C141    20.17200   11.82600   49.40600
      C    C142    19.84800   10.35200   49.55400
      O    O143    18.81700    9.88100   49.07600
      N    N144    20.71900    9.61900   50.21600
      N    N145    17.90200   14.75800   49.48900
      C    C146    16.94200   15.20200   48.47000
      C    C147    17.24400   16.64900   47.99200
      O    O148    17.10100   16.96600   46.80900
      C    C149    15.52200   14.94000   49.04500
      C    C150    14.74900   16.19800   49.36600
      C    C151    14.76600   13.89000   48.25800
      N    N152    17.75300   17.49100   48.88500
      C    C153    18.19400   18.84600   48.52400
      C    C154    19.52200   18.95500   47.80200
      O    O155    19.78200   19.95600   47.13800
      C    C156    18.21600   19.73800   49.76800
      C    C157    16.81000   20.08200   50.23700
      O    O158    16.20600   21.05300   49.77500
      N    N159    16.27100   19.26700   51.12300
      N    N160    20.36800   17.94200   47.94300
      C    C161    21.64700   17.91800   47.24800
      C    C162    21.62500   17.03900   45.98800
      O    O163    22.12800   17.46800   44.95600
      C    C164    22.78500   17.51000   48.19600
      O    O165    22.65600   18.24600   49.41300
      C    C166    24.13800   17.80900   47.58900
      N    N167    21.06300   15.82800   46.10600
      C    C168    20.86500   14.81700   45.02900
      C    C169    19.85500   15.29000   44.00400
      O    O170    20.03100   15.06200   42.83300
      C    C171    20.20800   13.50900   45.61400
      C    C172    21.08600   12.27400   45.48600
      O    O173    22.11000   12.33700   44.79300
      O    O174    20.77000   11.22400   46.07300
      N    N175    18.73800   15.83700   44.50300
      C    C176    17.55000   16.15200   43.69400
      C    C177    16.91500   14.93700   43.01800
      O    O178    16.23500   15.07700   42.00000
      C    C179    17.84700   17.27100   42.69500
      C    C180    18.26900   18.54500   43.36200
      N    N181    17.39500   19.32400   44.09400
      C    C182    19.47600   19.14700   43.45800
      C    C183    18.04700   20.35700   44.60000
      N    N184    19.30900   20.27500   44.22700
      N    N185    17.15200   13.75500   43.59300
      C    C186    16.40400   12.55800   43.27900
      C    C187    15.36600   12.28100   44.36500
      O    O188    15.62000   12.51800   45.55900
      C    C189    17.31300   11.35400   43.20600
      C    C190    18.26300   11.35300   42.06200
      C    C191    19.19600   10.16100   42.14200
      O    O192    18.78200    9.04700   42.50100
      N    N193    20.46900   10.38600   41.82400
      N    N194    14.20800   11.71600   43.96100
      C    C195    13.15100   11.34300   44.89900
      C    C196    13.57800   10.11300   45.70800
      O    O197    14.40000    9.30400   45.22900
      C    C198    12.01000   10.94600   43.97600
      C    C199    12.70300   10.36800   42.75500
      C    C200    13.88400   11.32900   42.57000
      N    N201    13.03300    9.98000   46.92200
      C    C202    13.21900    8.78500   47.71700
      C    C203    11.88100    8.08600   47.84900
      O    O204    10.91900    8.63600   48.41300
      C    C205    13.84400    9.05800   49.12400
      C    C206    14.09200    7.74700   49.85900
      C    C207    15.16000    9.80100   48.99300
      N    N208    11.82200    6.87700   47.30300
      C    C209    10.66200    6.01800   47.45400
      C    C210    10.63000    5.30500   48.79000
      O    O211    11.51300    4.50400   49.10200
      C    C212    10.58900    4.99200   46.34200
      C    C213    10.62700    5.63200   45.01500
      C    C214     9.80600    4.87700   43.99600
      N    N215     9.75300    5.70000   42.78600
      C    C216     8.74000    5.71100   41.93200
      N    N217     7.66900    4.93300   42.14600
      N    N218     8.80600    6.50200   40.86900
      N    N219     9.57000    5.59600   49.54100
      C    C220     9.32900    5.03700   50.86900
      C    C221     8.22500    3.98400   50.82700
      O    O222     7.13200    4.21800   50.28200
      C    C223     8.95900    6.13600   51.88400
      C    C224     9.88200    7.35800   51.70900
      C    C225     8.99600    5.56300   53.30000
      C    C226     9.80400    8.35300   52.83900
      N    N227     8.52800    2.83900   51.42300
      C    C228     7.64800    1.66200   51.41000
      C    C229     6.84000    1.45700   52.70100
      O    O230     7.37000    1.59900   53.79900
      C    C231     8.49700    0.39100   51.08200
      O    O232     8.39800    0.11600   49.68200
      C    C233     8.08000   -0.84300   51.89100
      N    N234     5.56000    1.12300   52.56600
      C    C235     4.76300    0.69400   53.72200
      C    C236     3.54000   -0.07800   53.33400
      O    O237     3.04900    0.02300   52.20900
      C    C238     4.29600    1.88300   54.56300
      O    O239     3.11100    2.44700   54.02600
      N    N240     3.03900   -0.81700   54.31700
      C    C241     1.71900   -1.44800   54.28700
      C    C242     0.60500   -0.42300   53.99000
      O    O243    -0.45200   -0.78200   53.48600
      C    C244     1.48100   -2.17400   55.61500
      C    C245     1.81400   -1.32400   56.86000
      C    C246     2.72400   -2.02900   57.90900
      N    N247     4.17500   -1.89700   57.65400
      C    C248     4.86400   -0.74800   57.58100
      N    N249     4.26100    0.42900   57.72200
      N    N250     6.17500   -0.77400   57.35200
      N    N251     0.88600    0.85600   54.24900
      C    C252    -0.07200    1.96200   54.09900
      C    C253    -0.07200    2.63200   52.71700
      O    O254    -0.84900    3.57700   52.46300
      C    C255     0.21400    3.01500   55.16300
      N    N256     0.79200    2.15600   51.82900
      C    C257     0.96800    2.82100   50.56100
      C    C258     2.35400    3.41200   50.55600
      O    O259     2.98100    3.60300   51.60800
      N    N260     2.84400    3.67500   49.36000
      C    C261     4.17700    4.15800   49.21000
      C    C262     4.13600    5.67500   49.14800
      O    O263     3.13200    6.28100   48.73400
      C    C264     4.79600    3.59000   47.93600
      C    C265     4.88000    2.08200   47.93900
      O    O266     4.92800    1.44300   49.01700
      O    O267     4.90000    1.51900   46.83200
      N    N268     5.23400    6.28800   49.56500
      C    C269     5.35600    7.71700   49.46500
      C    C270     6.64900    8.09500   48.77200
      O    O271     7.58600    7.31300   48.71900
      C    C272     5.28100    8.35000   50.85100
      N    N273     6.69400    9.30400   48.24600
      C    C274     7.93300    9.85300   47.73200
      C    C275     8.27400   11.04900   48.57000
      O    O276     7.40800   11.89800   48.83700
      C    C277     7.82600   10.27100   46.18900
      C    C278     8.93600   11.24500   45.77200
      C    C279     7.83600    9.04600   45.31000
      N    N280     9.54100   11.12900   48.96100
      C    C281    10.06800   12.32900   49.59600
      C    C282    10.85100   13.06600   48.55100
      O    O283    11.69300   12.46900   47.88000
      C    C284    10.97000   11.95400   50.76800
      C    C285    11.59600   13.11600   51.56300
      C    C286    10.57400   13.81800   52.46300
      C    C287    12.79100   12.61800   52.36900
      N    N288    10.59600   14.35900   48.37200
      C    C289    11.35300   15.11500   47.34300
      C    C290    11.66700   16.53800   47.84500
      O    O291    11.06000   16.97800   48.82200
      C    C292    10.57500   15.13500   46.03200
      C    C293     9.25500   15.91900   46.12700
      S    S294     8.36000   15.96600   44.54400
      C    C295     9.62000   16.81500   43.57900
      N    N296    12.61600   17.25500   47.23100
      C    C297    12.92400   18.56700   47.79700
      C    C298    11.83400   19.55700   47.42900
      O    O299    11.22000   19.42700   46.37100
      C    C300    14.31800   19.06300   47.43500
      O    O301    14.32700   19.57300   46.12600
      N    N302    11.56400   20.49600   48.33500
      C    C303    10.56700   21.54200   48.12700
      C    C304    10.85500   22.33000   46.84300
      O    O305     9.94200   22.55000   46.05800
      C    C306    10.49600   22.49200   49.34000
      N    N307    12.11700   22.72600   46.61400
      C    C308    12.47200   23.44300   45.39100
      C    C309    12.20900   22.67100   44.06300
      O    O310    11.78600   23.28000   43.07800
      C    C311    13.82200   24.21500   45.48400
      C    C312    15.04400   23.32000   45.62300
      O    O313    14.90800   22.08200   45.44200
      O    O314    16.16500   23.85900   45.90800
      N    N315    12.40500   21.34500   44.04900
      C    C316    12.06000   20.51900   42.88900
      C    C317    10.53900   20.45900   42.67200
      O    O318    10.03800   20.51800   41.53400
      C    C319    12.65400   19.09600   43.04400
      C    C320    14.16400   19.08300   42.89700
      O    O321    14.90700   18.43300   43.65800
      O    O322    14.64300   19.76700   41.99300
      N    N323     9.81000   20.32700   43.76700
      C    C324     8.36100   20.28000   43.73400
      C    C325     7.76500   21.59200   43.17800
      O    O326     6.96800   21.57200   42.26700
      C    C327     7.84000   20.04700   45.15600
      C    C328     6.34200   20.01200   45.23900
      C    C329     5.66400   18.81400   45.10700
      C    C330     5.59400   21.17800   45.45100
      C    C331     4.27900   18.75900   45.15500
      C    C332     4.19300   21.13800   45.50700
      C    C333     3.55300   19.90800   45.36300
      O    O334     2.17900   19.79900   45.40800
      N    N335     8.16800   22.71700   43.76700
      C    C336     7.72300   24.04100   43.37000
      C    C337     8.06300   24.23600   41.91600
      O    O338     7.18000   24.59800   41.13800
      C    C339     8.40700   25.13400   44.18700
      C    C340     8.01700   25.11100   45.63800
      O    O341     8.83200   25.57400   46.49100
      O    O342     6.89300   24.64600   45.93700
      N    N343     9.32600   23.98000   41.55500
      C    C344     9.79200   24.16600   40.18600
      C    C345     8.90700   23.40900   39.16000
      O    O346     8.53500   23.95600   38.13200
      C    C347    11.25700   23.79000   40.06400
      N    N348     8.50400   22.19700   39.50100
      C    C349     7.71500   21.33300   38.61600
      C    C350     6.26100   21.80600   38.51700
      O    O351     5.69500   21.84800   37.41900
      C    C352     7.81800   19.85200   39.06400
      C    C353     6.96800   18.89200   38.30500
      C    C354     5.65200   18.56700   38.56400
      C    C355     7.36800   18.07000   37.16700
      N    N356     5.22000   17.60100   37.65800
      C    C357     6.24600   17.29400   36.79300
      C    C358     8.55500   17.92400   36.44100
      C    C359     6.27800   16.41100   35.69500
      C    C360     8.59200   17.03800   35.36100
      C    C361     7.47000   16.29400   34.99400
      N    N362     5.65100   22.13500   39.64200
      C    C363     4.29700   22.65000   39.63300
      C    C364     4.20900   24.02700   38.91900
      O    O365     3.21500   24.32600   38.21900
      C    C366     3.76400   22.77200   41.06200
      C    C367     2.30600   23.12400   41.07100
      C    C368     1.63200   22.84100   42.39000
      O    O369     0.69400   22.06400   42.45500
      N    N370     2.07000   23.50300   43.43300
      N    N371     5.22500   24.87000   39.10800
      C    C372     5.25900   26.18300   38.44200
      C    C373     5.40000   26.07500   36.90200
      O    O374     4.77300   26.82500   36.15400
      C    C375     6.38100   27.04800   39.01800
      C    C376     6.24700   27.48000   40.51400
      C    C377     7.61200   27.92700   41.09000
      O    O378     8.62100   27.89300   40.34300
      O    O379     7.70800   28.32500   42.27800
      N    N380     6.20700   25.11300   36.45200
      C    C381     6.53800   24.94500   35.04100
      C    C382     5.33700   24.37400   34.31800
      O    O383     5.02700   24.79100   33.20100
      C    C384     7.80600   24.03600   34.83000
      O    O385     8.94400   24.55100   35.55300
      C    C386     8.15900   23.95500   33.37200
      N    N387     4.64700   23.43100   34.96000
      C    C388     3.42800   22.85300   34.41400
      C    C389     2.24300   23.86600   34.33600
      O    O390     1.42200   23.82400   33.40200
      C    C391     3.05600   21.53100   35.17300
      C    C392     1.59300   21.08200   34.88600
      C    C393     4.03700   20.43200   34.79000
      N    N394     2.17100   24.76700   35.31200
      C    C395     1.27800   25.90500   35.24400
      C    C396     1.61600   26.80500   34.02500
      O    O397     0.71300   27.27400   33.32200
      C    C398     1.36200   26.67600   36.56300
      C    C399     0.22300   27.63900   36.83600
      C    C400    -1.01400   27.18300   37.32500
      C    C401     0.37800   29.00300   36.62200
      C    C402    -2.08100   28.07200   37.56400
      C    C403    -0.67900   29.89400   36.85200
      C    C404    -1.90500   29.42600   37.32300
      O    O405    -2.93000   30.32900   37.57600
      N    N406     2.91100   27.03600   33.76400
      C    C407     3.30900   27.97000   32.71200
      C    C408     3.08500   27.32800   31.35400
      O    O409     2.89100   28.01300   30.34500
      C    C410     4.76800   28.41300   32.84800
      C    C411     5.26000   29.47200   33.85400
      C    C412     6.78900   29.58600   33.81300
      C    C413     4.65000   30.86500   33.67800
      N    N414     3.11700   26.00700   31.31400
      C    C415     2.90600   25.30300   30.04900
      C    C416     1.47500   25.41200   29.55100
      O    O417     1.13900   24.83300   28.52700
      C    C418     3.29300   23.84000   30.18300
      C    C419     4.80400   23.58300   30.25300
      C    C420     5.02400   22.07900   30.55200
      C    C421     5.54700   24.02900   28.98300
      N    N422     0.64200   26.15400   30.27700
      C    C423    -0.76000   26.36000   29.89200
      C    C424    -0.85400   27.14600   28.60800
      O    O425    -1.77300   26.97100   27.82800
      C    C426    -1.53200   27.09500   30.98000
      C    C427    -2.01700   26.17300   32.03600
      C    C428    -2.81500   26.92100   33.08000
      N    N429    -3.06800   26.08200   34.22800
      C    C430    -3.92000   26.36600   35.21000
      N    N431    -4.64200   27.48200   35.16800
      N    N432    -4.05600   25.51400   36.23700
      N    N433     0.12600   28.00400   28.41300
      C    C434     0.16200   28.90600   27.28000
      C    C435     1.32800   28.50400   26.39500
      O    O436     2.49000   28.59400   26.81700
      C    C437     0.36400   30.33900   27.77600
      O    O438    -0.37300   31.21000   26.95900
      N    N439     1.03300   28.02800   25.17500
      C    C440     2.12400   27.58900   24.29200
      C    C441     3.18300   28.69000   23.94700
      O    O442     4.36500   28.35400   23.69800
      C    C443     1.39300   27.06700   23.05600
      C    C444    -0.01300   26.81700   23.51300
      C    C445    -0.29400   27.83300   24.56900
      N    N446     2.78800   29.96800   23.97200
      C    C447     3.77100   31.04700   23.79200
      C    C448     4.81700   31.03400   24.90100
      O    O449     5.98700   31.36000   24.66400
      C    C450     3.13700   32.44700   23.60800
      C    C451     2.21100   32.97300   24.71700
      C    C452     1.39200   34.20800   24.25600
      O    O453     0.16200   34.07200   24.00900
      O    O454     1.97400   35.32200   24.10400
      N    N455     4.40700   30.60900   26.09700
      C    C456     5.28700   30.66400   27.25800
      C    C457     6.56100   29.86900   27.12400
      O    O458     7.60900   30.32500   27.59500
      C    C459     4.56900   30.27900   28.54000
      C    C460     3.62400   31.35300   29.03100
      O    O461     2.79800   31.09500   29.91600
      N    N462     3.71300   32.55600   28.44900
      N    N463     6.47300   28.69200   26.49200
      C    C464     7.64700   27.82700   26.28000
      C    C465     8.61000   28.43300   25.27200
      O    O466     9.83500   28.31100   25.41300
      C    C467     7.23400   26.44000   25.85800
      N    N468     8.05400   29.09000   24.26300
      C    C469     8.85200   29.83800   23.30900
      C    C470     9.54200   30.99500   23.99000
      O    O471    10.75100   31.16000   23.82400
      C    C472     8.01200   30.34000   22.14900
      C    C473     8.82700   30.74900   20.94100
      C    C474     8.09000   31.79200   20.07300
      N    N475     7.13500   32.62900   20.82600
      C    C476     7.42700   33.80100   21.39200
      N    N477     8.65100   34.31100   21.29700
      N    N478     6.47600   34.46100   22.05500
      N    N479     8.79700   31.77600   24.77900
      C    C480     9.41000   32.84700   25.58600
      C    C481    10.57800   32.34000   26.44000
      O    O482    11.67400   32.90000   26.37000
      C    C483     8.38800   33.56000   26.48500
      C    C484     7.58300   34.61100   25.76000
      C    C485     7.00200   35.61600   26.71700
      N    N486     5.65800   35.24200   27.10400
      C    C487     4.55800   35.69000   26.51000
      N    N488     4.64900   36.55100   25.51100
      N    N489     3.36100   35.29500   26.93900
      N    N490    10.33400   31.26900   27.20500
      C    C491    11.32400   30.73400   28.12500
      C    C492    12.56900   30.22700   27.40200
      O    O493    13.69100   30.58300   27.78300
      C    C494    10.72400   29.63900   29.01600
      C    C495     9.68300   30.04000   30.07400
      C    C496     9.44000   28.87000   31.03300
      C    C497    10.02300   31.37500   30.84800
      N    N498    12.35600   29.43700   26.34500
      C    C499    13.44400   28.93700   25.49800
      C    C500    14.27200   30.05800   24.87900
      O    O501    15.49900   30.03100   24.97900
      C    C502    12.91400   28.02600   24.37500
      C    C503    13.89900   27.91700   23.18500
      S    S504    13.32400   26.96200   21.77000
      C    C505    13.35000   25.34200   22.56600
      N    N506    13.59700   31.01400   24.22600
      C    C507    14.26100   32.16500   23.58500
      C    C508    15.13300   32.97900   24.54500
      O    O509    16.24600   33.36100   24.20200
      C    C510    13.25600   33.09100   22.88500
      C    C511    12.53300   32.44800   21.70600
      C    C512    11.89800   33.46200   20.74400
      O    O513    11.60600   34.61600   21.16900
      O    O514    11.70500   33.08900   19.55400
      N    N515    14.61400   33.23200   25.74400
      C    C516    15.29700   34.03200   26.75800
      C    C517    16.53100   33.34100   27.38100
      O    O518    17.51800   34.00700   27.71800
      C    C519    14.31400   34.44200   27.82600
      N    N520    16.46500   32.02100   27.54900
      C    C521    17.60100   31.26400   28.04500
      C    C522    18.78800   31.48700   27.10300
      O    O523    19.79500   32.11300   27.48500
      C    C524    17.26800   29.74800   28.17900
      C    C525    18.54600   28.88800   28.23400
      C    C526    16.37000   29.50200   29.39400
      N    N527    18.62100   31.02900   25.86000
      C    C528    19.65300   31.06500   24.81900
      C    C529    20.28600   32.44700   24.53900
      O    O530    21.35700   32.51800   23.93400
      C    C531    19.10500   30.43400   23.52200
      N    N532    19.64400   33.52900   24.98500
      C    C533    20.16900   34.89500   24.80900
      C    C534    21.68600   35.02000   24.98300
      O    O535    22.37700   35.55300   24.10600
      C    C536    19.47600   35.86200   25.76800
      C    C537    18.09800   36.26600   25.31600
      C    C538    18.09900   37.57900   24.54100
      N    N539    16.89700   37.69200   23.71100
      C    C540    15.63900   37.67600   24.16900
      N    N541    15.37800   37.54800   25.47200
      N    N542    14.63100   37.78500   23.31300
