# CIF file generated by openbabel 2.3.2, see http://openbabel.sf.net
data_I
_chemical_name_common '../proteins/pdb/3D55.pdb'
_cell_length_a 64.848
_cell_length_b 64.776
_cell_length_c 83.486
_cell_angle_alpha 90
_cell_angle_beta 90
_cell_angle_gamma 90
_space_group_name_H-M_alt 'P 21 21 21'
_space_group_name_Hall 'P 2ac 2ab'
loop_
    _symmetry_equiv_pos_as_xyz
    'x,y,z'
    '1/2-x,-y,1/2+z'
    '-x,1/2+y,1/2-z'
    '1/2+x,1/2-y,-z'
loop_
    _atom_site_type_symbol
    _atom_site_label
    _atom_site_Cartn_x
    _atom_site_Cartn_y
    _atom_site_Cartn_z
      N    N1    17.18200    7.32200   46.23800
      C    C2    17.06000    6.11600   47.17300
      C    C3    15.62500    5.53400   47.23700
      O    O4    14.63500    6.09300   46.67200
      C    C5    17.62000    6.35800   48.60300
      C    C6    19.04700    6.70700   48.77200
      S    S7    20.15300    5.40900   49.37500
      C    C8    21.45900    6.37500   50.16800
      N    N9    15.56300    4.37100   47.90700
      C    C10    14.43200    3.47200   47.91000
      C    C11    14.49600    2.63500   49.20200
      O    O12    15.31400    1.71900   49.27900
      C    C13    14.55600    2.53700   46.71300
      O    O14    13.60300    1.54100   46.81900
      N    N15    13.62700    2.94500   50.17200
      C    C16    13.76400    2.50900   51.55800
      C    C17    12.38600    2.14500   52.20700
      O    O18    11.30000    2.30400   51.57100
      C    C19    14.45400    3.64700   52.34700
      C    C20    13.50900    4.83900   52.51400
      C    C21    15.68400    4.15500   51.58300
      C    C22    14.23500    6.14500   52.82700
      N    N23    12.41200    1.66400   53.46000
      C    C24    11.16000    1.38100   54.20500
      C    C25    10.76300    2.58600   55.01100
      O    O26    11.62800    3.37300   55.38400
      C    C27    11.33600    0.20400   55.16200
      O    O28    12.04300    0.60900   56.31600
      N    N29     9.47800    2.69400   55.35200
      C    C30     8.99100    3.71800   56.31700
      C    C31     9.71800    3.79500   57.64000
      O    O32    10.07300    4.89300   58.06800
      C    C33     7.51800    3.57300   56.55900
      N    N34     9.94100    2.65900   58.32700
      C    C35    10.78800    2.76600   59.54000
      C    C36    12.18900    3.20600   59.13800
      O    O37    12.72300    4.10900   59.71000
      C    C38    10.85500    1.45300   60.33900
      O    O39    11.10600    0.38100   59.45400
      N    N40    12.78300    2.58600   58.10700
      C    C41    14.11800    3.04000   57.69600
      C    C42    14.00200    4.56700   57.38700
      O    O43    14.82800    5.35800   57.79200
      C    C44    14.58400    2.24000   56.49400
      C    C45    16.02800    2.47800   56.04100
      C    C46    16.33400    1.69800   54.75000
      O    O47    17.39600    1.92600   54.13800
      O    O48    15.49400    0.86100   54.34700
      N    N49    12.90200    4.97200   56.76300
      C    C50    12.72800    6.39600   56.36000
      C    C51    12.40600    7.32200   57.55500
      O    O52    12.76600    8.48400   57.58400
      C    C53    11.65100    6.49700   55.22000
      N    N54    11.70000    6.77400   58.54500
      C    C55    11.49000    7.51000   59.76500
      C    C56    12.78600    7.82500   60.53900
      O    O57    13.05700    8.96200   60.88800
      C    C58    10.48100    6.79900   60.66600
      C    C59    10.53800    7.40800   62.04900
      C    C60     9.33800    7.04600   62.86100
      N    N61     9.28400    5.60700   63.10300
      C    C62     8.25200    4.99900   63.67500
      N    N63     7.19600    5.71500   64.04900
      N    N64     8.26600    3.67600   63.84400
      N    N65    13.63200    6.84200   60.78400
      C    C66    14.75000    7.20200   61.64200
      C    C67    15.76300    8.03500   60.84700
      O    O68    16.32600    9.02000   61.35700
      C    C69    15.34800    5.97600   62.28300
      C    C70    15.71400    6.23900   63.70000
      C    C71    16.52700    5.12100   64.25200
      O    O72    17.74100    5.07100   64.02400
      N    N73    15.86800    4.18500   64.97500
      N    N74    15.85900    7.71900   59.54500
      C    C75    16.77900    8.43400   58.67500
      C    C76    16.22700    9.75500   58.09300
      O    O77    16.86500   10.34300   57.23300
      C    C78    17.32100    7.47600   57.59800
      C    C79    18.52200    6.61800   58.08700
      C    C80    19.11100    7.29200   59.38600
      N    N81    20.40600    6.79800   59.85200
      C    C82    20.58200    5.98800   60.90400
      N    N83    19.54600    5.56000   61.61500
      N    N84    21.81700    5.61400   61.24700
      N    N85    15.06000   10.22700   58.54600
      C    C86    14.40500   11.37600   57.87700
      C    C87    15.20800   12.65500   57.67200
      O    O88    15.03700   13.28600   56.64600
      C    C89    12.97100   11.70100   58.40700
      C    C90    12.20600   12.94500   57.84200
      C    C91    11.96100   12.84500   56.34200
      C    C92    10.82600   13.17900   58.49300
      N    N93    16.00200   13.11200   58.63600
      C    C94    16.77100   14.40200   58.45300
      C    C95    17.88700   14.34900   57.35300
      O    O96    18.06400   15.29000   56.60500
      C    C97    17.41700   14.87400   59.76900
      C    C98    16.47400   15.63100   60.66400
      C    C99    16.55500   17.04100   60.76400
      C    C100    15.42100   14.95600   61.31100
      C    C101    15.62600   17.73700   61.54700
      C    C102    14.47100   15.63600   62.12200
      C    C103    14.57400   17.01100   62.25300
      N    N104    18.66600   13.25100   57.32100
      C    C105    19.69000   13.16700   56.26700
      C    C106    19.00900   13.02500   54.88800
      O    O107    19.50400   13.53200   53.93400
      C    C108    20.46100   11.90800   56.57900
      C    C109    19.71400   11.23100   57.73900
      C    C110    18.85200   12.25800   58.39700
      N    N111    17.87000   12.37300   54.86300
      C    C112    17.00700   12.26200   53.64900
      C    C113    16.65700   13.61400   53.12500
      O    O114    16.78000   13.85000   51.93100
      C    C115    15.81700   11.34400   53.90400
      C    C116    16.23700    9.85100   53.97900
      C    C117    15.11500    8.88100   54.38200
      C    C118    17.00600    9.30700   52.79800
      N    N119    16.29400   14.54900   53.97200
      C    C120    16.07000   15.91700   53.53100
      C    C121    17.30300   16.67800   53.03000
      O    O122    17.20500   17.47700   52.14700
      C    C123    15.33900   16.72400   54.58500
      C    C124    13.94500   16.20800   54.73100
      C    C125    15.34700   18.15500   54.29100
      C    C126    13.25700   16.76400   55.84400
      N    N127    18.46600   16.43700   53.59200
      C    C128    19.61000   17.05400   53.00500
      C    C129    19.82300   16.28800   51.67800
      O    O130    20.19900   16.91600   50.67000
      C    C131    20.86600   16.87800   53.91600
      C    C132    21.93300   17.82100   53.58400
      C    C133    23.27500   17.44000   54.20400
      O    O134    23.38900   16.35100   54.90100
      O    O135    24.17700   18.27800   53.98500
      N    N136    19.61900   14.96500   51.67800
      C    C137    19.96700   14.22100   50.42400
      C    C138    19.15300   14.74500   49.22200
      O    O139    19.68500   15.13100   48.19300
      C    C140    19.86900   12.74900   50.59000
      C    C141    20.23200   11.93000   49.32500
      C    C142    19.85100   10.53000   49.56300
      O    O143    18.97000    9.97100   48.89900
      N    N144    20.50000    9.91600   50.56300
      N    N145    17.85500   14.92400   49.44900
      C    C146    16.92700   15.41700   48.41000
      C    C147    17.25100   16.85000   47.88900
      O    O148    17.24700   17.12900   46.64900
      C    C149    15.52400   15.18000   49.09200
      C    C150    14.73100   16.43500   49.55900
      C    C151    14.82100   13.99800   48.56300
      N    N152    17.57800   17.75400   48.80900
      C    C153    18.08300   19.08000   48.47200
      C    C154    19.42500   19.13900   47.87600
      O    O155    19.84700   20.21000   47.49000
      C    C156    18.09400   19.99200   49.70900
      C    C157    16.73400   20.51000   50.02900
      O    O158    16.30800   21.51400   49.50100
      N    N159    15.98700   19.74700   50.85000
      N    N160    20.12600   17.99900   47.78800
      C    C161    21.44600   18.00500   47.25400
      C    C162    21.58000   17.27100   45.93300
      O    O163    22.02200   17.91200   44.95700
      C    C164    22.49300   17.48000   48.22300
      O    O165    22.56000   18.36500   49.29900
      C    C166    23.84900   17.52300   47.59200
      N    N167    21.18000   15.97900   45.90200
      C    C168    21.28900   15.16000   44.66600
      C    C169    19.99300   15.29700   43.84200
      O    O170    19.88100   14.71600   42.78600
      C    C171    21.73000   13.65100   44.90800
      C    C172    20.65500   12.75800   45.52600
      O    O173    21.03400   11.61200   46.07200
      O    O174    19.46900   13.21500   45.55600
      N    N175    18.99300   16.04300   44.35300
      C    C176    17.75000   16.28200   43.60800
      C    C177    17.00900   15.04700   43.02800
      O    O178    16.33200   15.11500   42.00000
      C    C179    17.99200   17.36800   42.55600
      C    C180    18.24600   18.68300   43.19300
      N    N181    17.23800   19.33600   43.86000
      C    C182    19.39600   19.32700   43.51700
      C    C183    17.72700   20.42500   44.44600
      N    N184    19.04100   20.41900   44.28200
      N    N185    17.17600   13.92800   43.69100
      C    C186    16.62000   12.67400   43.25400
      C    C187    15.51700   12.34400   44.25000
      O    O188    15.64800   12.63100   45.45500
      C    C189    17.70400   11.63600   43.20500
      C    C190    18.83000   11.79400   42.05800
      C    C191    19.72800   10.54600   42.01300
      O    O192    19.32800    9.48400   42.53600
      N    N193    20.93400   10.65400   41.41700
      N    N194    14.38800   11.81000   43.78200
      C    C195    13.40300   11.61900   44.85500
      C    C196    13.71400   10.33900   45.69800
      O    O197    14.51400    9.46700   45.28300
      C    C198    12.11900   11.49300   44.10300
      C    C199    12.63900   10.52100   42.74400
      C    C200    13.91800   11.32400   42.42500
      N    N201    13.10900   10.23300   46.88700
      C    C202    13.28200    9.02000   47.71100
      C    C203    11.95400    8.33800   47.83200
      O    O204    11.02900    8.96600   48.39200
      C    C205    13.75200    9.31900   49.14900
      C    C206    13.96400    8.02100   49.83900
      C    C207    15.03900   10.11900   49.14400
      N    N208    11.88300    7.10700   47.30800
      C    C209    10.73500    6.17600   47.44400
      C    C210    10.73300    5.45800   48.79000
      O    O211    11.70300    4.75800   49.15300
      C    C212    10.81400    5.07800   46.39900
      C    C213    10.68400    5.55200   45.00100
      C    C214     9.36100    5.13800   44.37600
      N    N215     9.33600    5.74500   43.05800
      C    C216     8.43900    5.55700   42.09500
      N    N217     7.37900    4.74600   42.24300
      N    N218     8.62400    6.23100   40.96800
      N    N219     9.65900    5.69700   49.53700
      C    C220     9.46500    5.11700   50.85100
      C    C221     8.34600    4.08600   50.73500
      O    O222     7.19900    4.41700   50.31900
      C    C223     9.03000    6.17400   51.87400
      C    C224    10.13800    7.19300   52.05700
      C    C225     8.66700    5.47600   53.21600
      C    C226     9.72400    8.47400   52.68700
      N    N227     8.70400    2.85100   51.08100
      C    C228     7.78900    1.70900   51.17500
      C    C229     7.05700    1.65700   52.51800
      O    O230     7.56800    2.08000   53.52800
      C    C231     8.58800    0.39000   50.90400
      O    O232     8.55200    0.11900   49.49600
      C    C233     8.05200   -0.81700   51.68500
      N    N234     5.81700    1.20400   52.52000
      C    C235     5.09100    0.95400   53.77400
      C    C236     3.86500    0.24300   53.32800
      O    O237     3.43100    0.44600   52.20900
      C    C238     4.70600    2.23700   54.52900
      O    O239     3.33800    2.60400   54.32400
      N    N240     3.30000   -0.58900   54.20300
      C    C241     2.09600   -1.36600   53.87000
      C    C242     0.86000   -0.44900   53.79900
      O    O243    -0.22200   -0.87300   53.44200
      C    C244     1.89900   -2.60400   54.81900
      C    C245     2.89300   -2.76200   56.02300
      C    C246     4.29800   -3.38300   55.63800
      N    N247     5.38400   -3.12000   56.61100
      C    C248     5.67600   -1.93800   57.19000
      N    N249     5.00100   -0.81400   56.91600
      N    N250     6.66800   -1.87100   58.06300
      N    N251     1.06400    0.82800   54.08400
      C    C252     0.00900    1.83400   54.13700
      C    C253    -0.00300    2.71800   52.86000
      O    O254    -0.72300    3.74400   52.78100
      C    C255     0.22500    2.69000   55.38600
      N    N256     0.78900    2.32000   51.86200
      C    C257     1.00000    3.13100   50.65800
      C    C258     2.47600    3.53900   50.52900
      O    O259     3.18700    3.64700   51.50000
      N    N260     2.93700    3.68600   49.28800
      C    C261     4.27000    4.14900   49.05100
      C    C262     4.18400    5.68100   48.99100
      O    O263     3.11900    6.27600   48.68500
      C    C264     4.84200    3.53700   47.75100
      C    C265     4.90500    1.97400   47.78600
      O    O266     5.34000    1.41600   48.79500
      O    O267     4.51100    1.29100   46.80000
      N    N268     5.30500    6.32700   49.28800
      C    C269     5.35400    7.76100   49.23600
      C    C270     6.70300    8.11900   48.63400
      O    O271     7.57200    7.29600   48.62300
      C    C272     5.15600    8.34100   50.60900
      N    N273     6.79300    9.29300   48.01600
      C    C274     8.05800    9.89200   47.54100
      C    C275     8.40700   11.14700   48.38900
      O    O276     7.54500   11.90600   48.66900
      C    C277     7.97400   10.22700   46.04300
      C    C278     9.17900   11.16600   45.61700
      C    C279     7.90300    8.89500   45.19800
      N    N280     9.65800   11.28500   48.76400
      C    C281    10.15600   12.40500   49.51400
      C    C282    10.96400   13.09500   48.46300
      O    O283    11.84300   12.43600   47.86200
      C    C284    11.11500   11.90600   50.68300
      C    C285    11.57400   13.22700   51.42600
      C    C286    10.33900   14.00000   51.98000
      C    C287    12.63700   13.04000   52.51200
      N    N288    10.64300   14.34900   48.11700
      C    C289    11.52100   15.12200   47.21400
      C    C290    11.83200   16.53400   47.71900
      O    O291    11.17000   17.01800   48.61300
      C    C292    10.84600   15.35500   45.86100
      C    C293     9.49800   16.03100   46.03000
      S    S294     8.44700   16.01500   44.49300
      C    C295     9.60500   16.78600   43.36100
      N    N296    12.78000   17.22300   47.07300
      C    C297    13.13900   18.53600   47.64000
      C    C298    12.02700   19.51500   47.29300
      O    O299    11.28200   19.32000   46.28100
      C    C300    14.50900   19.03400   47.19600
      O    O301    14.32500   19.75700   46.00900
      N    N302    11.84700   20.54200   48.13600
      C    C303    10.78300   21.46000   47.92300
      C    C304    10.90300   22.38300   46.72500
      O    O305     9.91300   22.65400   46.10100
      C    C306    10.34000   22.27000   49.21700
      N    N307    12.13900   22.83300   46.44400
      C    C308    12.54600   23.52100   45.24600
      C    C309    12.20100   22.72200   43.93900
      O    O310    11.63500   23.29200   42.96800
      C    C311    14.05600   23.97400   45.35300
      C    C312    15.07600   22.80000   45.52300
      O    O313    14.71400   21.65000   45.24200
      O    O314    16.25700   22.98600   45.97300
      N    N315    12.42100   21.38400   43.96300
      C    C316    12.05500   20.54500   42.84700
      C    C317    10.57700   20.49700   42.69400
      O    O318    10.07400   20.66600   41.59700
      C    C319    12.65200   19.13400   42.95600
      C    C320    14.16000   19.12700   42.90800
      O    O321    14.80200   18.49700   43.78500
      O    O322    14.69700   19.78900   41.99900
      N    N323     9.82600   20.23500   43.77900
      C    C324     8.40300   20.23300   43.64300
      C    C325     7.80200   21.54700   43.03900
      O    O326     6.84500   21.51500   42.23700
      C    C327     7.79700   19.99900   45.04900
      C    C328     6.35900   19.94600   45.06000
      C    C329     5.68300   18.70500   44.94300
      C    C330     5.61900   21.10100   45.15200
      C    C331     4.34100   18.66700   45.01200
      C    C332     4.30300   21.06600   45.19400
      C    C333     3.66900   19.82200   45.06800
      O    O334     2.33700   19.68200   45.12700
      N    N335     8.20900   22.66900   43.65000
      C    C336     7.76600   24.01900   43.23700
      C    C337     8.17700   24.26800   41.84000
      O    O338     7.38900   24.79800   41.13900
      C    C339     8.52200   25.13700   44.02700
      C    C340     8.15100   25.18000   45.49900
      O    O341     8.98600   25.71200   46.25200
      O    O342     7.05600   24.72000   45.87900
      N    N343     9.42200   24.00800   41.44800
      C    C344     9.73400   24.27500   40.04400
      C    C345     8.87700   23.43300   39.08000
      O    O346     8.53300   23.89400   37.97700
      C    C347    11.21500   24.07700   39.73700
      N    N348     8.62500   22.15400   39.46300
      C    C349     7.81100   21.27100   38.58600
      C    C350     6.41000   21.78600   38.41500
      O    O351     5.93700   22.06200   37.30400
      C    C352     7.84600   19.78600   39.10000
      C    C353     6.94800   18.82800   38.31300
      C    C354     5.63700   18.57900   38.50800
      C    C355     7.36500   18.02100   37.18100
      N    N356     5.17100   17.63700   37.53700
      C    C357     6.23900   17.32100   36.71400
      C    C358     8.60700   17.85900   36.50200
      C    C359     6.31200   16.37100   35.65000
      C    C360     8.66300   16.97100   35.42200
      C    C361     7.54200   16.23400   35.01500
      N    N362     5.73600   21.99200   39.53400
      C    C363     4.39700   22.51800   39.48400
      C    C364     4.33400   23.86300   38.76200
      O    O365     3.38700   24.09100   37.96300
      C    C366     3.76500   22.65500   40.87300
      C    C367     2.26000   22.97300   40.81200
      C    C368     1.54300   22.71400   42.16500
      O    O369     0.42500   22.12000   42.23200
      N    N370     2.19400   23.15600   43.25600
      N    N371     5.34200   24.71200   38.97800
      C    C372     5.30900   26.09700   38.30000
      C    C373     5.46000   25.95600   36.77700
      O    O374     4.90600   26.67700   35.98200
      C    C375     6.51000   26.93000   38.77600
      C    C376     6.28200   27.70400   40.12900
      C    C377     7.60800   27.95800   40.92100
      O    O378     8.71600   28.06700   40.33900
      O    O379     7.51200   28.10000   42.12300
      N    N380     6.32300   25.03700   36.38600
      C    C381     6.58900   24.82300   34.93100
      C    C382     5.33700   24.30000   34.26000
      O    O383     4.92200   24.78200   33.17800
      C    C384     7.73200   23.90500   34.73200
      O    O385     8.85100   24.40700   35.45900
      C    C386     8.06900   23.67700   33.09200
      N    N387     4.65800   23.36100   34.94700
      C    C388     3.48300   22.81000   34.43200
      C    C389     2.39300   23.89800   34.24200
      O    O390     1.67200   23.93500   33.20100
      C    C391     3.01500   21.56600   35.29200
      C    C392     1.54800   21.13000   34.86500
      C    C393     3.98500   20.40900   34.92800
      N    N394     2.26300   24.76300   35.27300
      C    C395     1.30100   25.88800   35.23800
      C    C396     1.60400   26.83800   34.06200
      O    O397     0.69600   27.29700   33.36000
      C    C398     1.32000   26.66400   36.62900
      C    C399     0.19500   27.66800   36.74200
      C    C400    -1.00500   27.36500   37.43300
      C    C401     0.34500   28.92500   36.21600
      C    C402    -2.06100   28.31500   37.50600
      C    C403    -0.69900   29.87300   36.27100
      C    C404    -1.87200   29.58900   36.90800
      O    O405    -2.82700   30.59300   36.96400
      N    N406     2.89100   27.09600   33.84200
      C    C407     3.35000   28.03500   32.76400
      C    C408     3.11100   27.44200   31.36900
      O    O409     2.86100   28.19100   30.35500
      C    C410     4.81900   28.28700   32.90800
      C    C411     5.57600   29.23600   33.87900
      C    C412     7.10600   28.99600   33.60100
      C    C413     5.17700   30.71300   33.74100
      N    N414     3.23600   26.10800   31.29400
      C    C415     2.91200   25.33000   30.08600
      C    C416     1.46100   25.42200   29.60200
      O    O417     1.11600   24.87800   28.53200
      C    C418     3.33500   23.86000   30.29400
      C    C419     4.86800   23.72300   30.01600
      C    C420     5.38600   22.25600   30.27600
      C    C421     5.16600   24.17600   28.56100
      N    N422     0.56700   25.99800   30.39400
      C    C423    -0.76500   26.31900   29.88700
      C    C424    -0.73200   27.12600   28.56500
      O    O425    -1.62300   26.99900   27.72900
      C    C426    -1.58700   27.09400   30.91800
      C    C427    -2.19000   26.16600   31.95300
      C    C428    -2.68200   26.82600   33.22600
      N    N429    -3.10300   25.76200   34.17600
      C    C430    -3.93000   26.01000   35.18000
      N    N431    -4.32800   27.27300   35.35100
      N    N432    -4.33000   25.02100   35.99600
      N    N433     0.23600   28.00200   28.40100
      C    C434     0.25300   28.73700   27.11600
      C    C435     1.43800   28.29000   26.37600
      O    O436     2.50000   28.27100   26.92900
      C    C437     0.34000   30.25500   27.28200
      O    O438    -0.93600   30.75900   27.44800
      N    N439     1.27000   27.96000   25.11900
      C    C440     2.40400   27.48900   24.31900
      C    C441     3.37900   28.59900   23.99100
      O    O442     4.55200   28.34700   23.65400
      C    C443     1.71900   26.99600   23.05000
      C    C444     0.30800   26.71200   23.47600
      C    C445    -0.01900   27.79400   24.41000
      N    N446     2.86400   29.82400   23.98800
      C    C447     3.74500   30.92300   23.67300
      C    C448     4.77200   31.09100   24.78600
      O    O449     5.92200   31.37900   24.48700
      C    C450     2.98800   32.22500   23.36300
      C    C451     1.89200   32.60600   24.26100
      C    C452     1.59200   34.10800   24.15200
      O    O453     0.47600   34.50200   24.50800
      O    O454     2.49000   34.86600   23.70400
      N    N455     4.34000   30.84600   26.03900
      C    C456     5.19800   30.80500   27.23200
      C    C457     6.38000   29.89100   27.06800
      O    O458     7.51300   30.25500   27.41400
      C    C459     4.40500   30.36300   28.47000
      C    C460     3.44700   31.39400   28.93000
      O    O461     2.66900   31.17500   29.85800
      N    N462     3.49100   32.54200   28.28100
      N    N463     6.14600   28.71000   26.48600
      C    C464     7.29100   27.79000   26.27300
      C    C465     8.33400   28.46300   25.35700
      O    O466     9.54300   28.48700   25.59600
      C    C467     6.78800   26.41500   25.76100
      N    N468     7.81900   29.10100   24.31100
      C    C469     8.64700   29.69500   23.30900
      C    C470     9.44000   30.82500   23.98200
      O    O471    10.65700   30.97700   23.72200
      C    C472     7.79000   30.24000   22.13200
      C    C473     8.58800   31.28900   21.23600
      C    C474     7.66100   32.21100   20.30900
      N    N475     6.66000   33.04100   21.02800
      C    C476     6.87700   34.27300   21.51400
      N    N477     8.05900   34.87300   21.35300
      N    N478     5.89600   34.91700   22.16300
      N    N479     8.76500   31.52200   24.88700
      C    C480     9.35600   32.57900   25.74000
      C    C481    10.32400   32.01500   26.80400
      O    O482    11.37200   32.58100   27.02700
      C    C483     8.23700   33.35600   26.43600
      C    C484     7.40500   34.22600   25.51200
      C    C485     6.82700   35.36400   26.41200
      N    N486     5.59200   35.00000   27.09700
      C    C487     4.39100   35.46800   26.77100
      N    N488     4.26100   36.26700   25.73200
      N    N489     3.29900   35.12600   27.47600
      N    N490     9.99400   30.88100   27.41500
      C    C491    11.04700   30.23700   28.26400
      C    C492    12.25200   29.96800   27.37800
      O    O493    13.32100   30.50300   27.60000
      C    C494    10.51000   29.05200   29.03900
      C    C495     9.92400   29.30500   30.46400
      C    C496    10.95000   28.88600   31.47500
      C    C497     9.51600   30.81500   30.78800
      N    N498    12.04100   29.28300   26.26400
      C    C499    13.14100   28.96300   25.34900
      C    C500    13.99500   30.13600   24.83900
      O    O501    15.23500   30.07900   24.84100
      C    C502    12.57500   28.24300   24.11400
      C    C503    13.44200   28.44000   22.83600
      S    S504    13.19300   27.17400   21.56900
      C    C505    12.57000   25.83100   22.58700
      N    N506    13.33300   31.15800   24.29100
      C    C507    14.06100   32.27900   23.63900
      C    C508    15.01200   32.97000   24.63000
      O    O509    16.13100   33.43000   24.28400
      C    C510    13.08200   33.28400   22.99300
      C    C511    13.14700   33.32100   21.46600
      C    C512    11.77900   33.48800   20.83600
      O    O513    11.09300   34.51000   21.10300
      O    O514    11.37300   32.57800   20.07900
      N    N515    14.55800   32.95800   25.87500
      C    C516    15.11400   33.74000   26.97100
      C    C517    16.38300   33.09000   27.53900
      O    O518    17.37700   33.78700   27.76000
      C    C519    14.06800   33.88100   28.04400
      N    N520    16.33600   31.76500   27.76600
      C    C521    17.50900   31.03400   28.23100
      C    C522    18.63000   31.24200   27.21400
      O    O523    19.79400   31.43400   27.59300
      C    C524    17.26100   29.50400   28.37100
      C    C525    18.53200   28.79400   28.88300
      C    C526    16.02500   29.19900   29.23300
      N    N527    18.25100   31.26000   25.93500
      C    C528    19.19700   31.43000   24.81600
      C    C529    19.74400   32.87500   24.64700
      O    O530    20.53700   33.12500   23.74300
      C    C531    18.56300   30.91200   23.49800
      N    N532    19.34400   33.80600   25.52900
      C    C533    19.79400   35.19400   25.45800
      C    C534    21.25300   35.39000   25.84600
      O    O535    22.08900   35.71300   24.99600
      C    C536    18.89600   36.09700   26.30100
      C    C537    17.63900   36.50600   25.58800
      C    C538    17.91700   37.62100   24.58000
      N    N539    16.72000   37.93200   23.80500
      C    C540    15.62800   38.51100   24.31500
      N    N541    15.57700   38.86000   25.60900
      N    N542    14.58100   38.74100   23.52600
