# CIF file generated by openbabel 2.3.2, see http://openbabel.sf.net
data_I
_chemical_name_common '../proteins/pdb/3DBO.pdb'
_cell_length_a 64.83
_cell_length_b 64.83
_cell_length_c 164.65
_cell_angle_alpha 90
_cell_angle_beta 90
_cell_angle_gamma 120
_space_group_name_H-M_alt 'P 65 2 2'
_space_group_name_Hall 'P 65 2 (0 0 1)'
loop_
    _symmetry_equiv_pos_as_xyz
    'x,y,z'
    '-y,x-y,2/3+z'
    '-x+y,-x,1/3+z'
    '-x,-y,1/2+z'
    'y,-x+y,1/6+z'
    'x-y,x,5/6+z'
    'y,x,2/3-z'
    'x-y,-y,-z'
    '-x,-x+y,1/3-z'
    '-y,-x,1/6-z'
    '-x+y,y,1/2-z'
    'x,x-y,5/6-z'
loop_
    _atom_site_type_symbol
    _atom_site_label
    _atom_site_Cartn_x
    _atom_site_Cartn_y
    _atom_site_Cartn_z
      N    N1    11.11400    9.99400  149.90700
      C    C2    10.67200   11.41600  149.75400
      C    C3     9.16400   11.56900  149.95500
      O    O4     8.36700   11.01000  149.19100
      C    C5    11.08700   11.98700  148.39300
      C    C6    12.57300   12.27500  148.25500
      C    C7    12.80400   13.41800  147.28300
      N    N8    14.20700   13.56400  146.91100
      C    C9    15.12700   14.15600  147.66600
      N    N10    14.79900   14.65300  148.85100
      N    N11    16.38000   14.24300  147.24000
      N    N12     8.79100   12.32800  150.98800
      C    C13     7.39200   12.56200  151.35900
      C    C14     7.19800   13.94700  152.00200
      O    O15     8.16600   14.62400  152.35100
      C    C16     6.90200   11.45900  152.31000
      N    N17     5.94300   14.36500  152.14600
      C    C18     5.63400   15.63500  152.79600
      C    C19     5.81600   15.49900  154.30200
      O    O20     5.12400   14.70900  154.95600
      C    C21     4.21700   16.09800  152.45300
      C    C22     4.08100   16.64500  151.06400
      C    C23     4.02800   15.93200  149.90400
      C    C24     3.97100   18.02500  150.69100
      N    N25     3.89500   16.77800  148.82800
      C    C26     3.85700   18.06900  149.28300
      C    C27     3.95700   19.22600  151.40900
      C    C28     3.73600   19.27000  148.57800
      C    C29     3.83200   20.41300  150.71500
      C    C30     3.72200   20.42700  149.31100
      N    N31     6.76500   16.25700  154.84200
      C    C32     7.08400   16.20400  156.26500
      C    C33     6.07400   17.00100  157.07900
      O    O34     5.62400   18.06900  156.65500
      C    C35     8.49400   16.75000  156.52600
      C    C36     9.70900   15.82200  156.65100
      C    C37     9.84300   14.86300  155.48900
      C    C38    10.97800   16.64100  156.79400
      N    N39     5.71700   16.48100  158.25400
      C    C40     4.94100   17.26700  159.20000
      C    C41     5.81400   18.40800  159.72700
      O    O42     7.04500   18.33900  159.67300
      C    C43     4.43800   16.39800  160.35400
      O    O44     5.47200   16.16500  161.29300
      N    N45     5.16800   19.45600  160.22700
      C    C46     5.85100   20.57500  160.87800
      C    C47     6.86700   20.08700  161.92100
      O    O48     8.00600   20.55400  161.94900
      C    C49     4.81600   21.49300  161.53900
      C    C50     5.33600   22.84800  161.99800
      C    C51     4.29200   23.56300  162.84300
      C    C52     4.96200   24.47200  163.86300
      N    N53     4.04700   24.92700  164.95600
      N    N54     6.45100   19.14500  162.77000
      C    C55     7.31500   18.65400  163.84700
      C    C56     8.47300   17.83100  163.29400
      O    O57     9.61400   18.00200  163.72300
      C    C58     6.53800   17.82200  164.89100
      O    O59     5.16400   18.22800  164.90100
      C    C60     7.14900   18.02100  166.28200
      N    N61     8.16100   16.94300  162.34800
      C    C62     9.17000   16.16600  161.62200
      C    C63    10.24500   17.08200  161.02200
      O    O64    11.42900   16.94600  161.34600
      C    C65     8.51600   15.32200  160.52200
      C    C66     7.88700   14.02000  161.00000
      C    C67     7.26400   13.22100  159.86600
      O    O68     6.55300   13.81600  159.02700
      O    O69     7.48000   11.99300  159.81700
      N    N70     9.83000   18.02300  160.16800
      C    C71    10.76600   18.97600  159.56300
      C    C72    11.63200   19.65300  160.61600
      O    O73    12.86100   19.60300  160.53700
      C    C74    10.04000   20.03400  158.71700
      C    C75    10.84600   21.30000  158.50200
      C    C76    12.05700   21.26800  157.79700
      C    C77    10.39900   22.52000  159.00800
      C    C78    12.81200   22.42700  157.60800
      C    C79    11.14600   23.69400  158.81800
      C    C80    12.35400   23.64200  158.11400
      N    N81    10.98200   20.28300  161.59400
      C    C82    11.68200   21.02200  162.64400
      C    C83    12.61400   20.13100  163.46300
      O    O84    13.60900   20.61000  164.00300
      C    C85    10.69800   21.76700  163.55500
      C    C86    10.01800   23.02100  162.98800
      C    C87     8.95000   23.51500  163.94100
      C    C88    11.01600   24.13000  162.67600
      N    N89    12.29800   18.83500  163.53600
      C    C90    13.20500   17.86400  164.15200
      C    C91    14.43400   17.59500  163.27900
      O    O92    15.55000   17.49300  163.80000
      C    C93    12.48500   16.55200  164.48000
      O    O94    11.63600   16.71800  165.59900
      N    N95    14.22600   17.47400  161.96400
      C    C96    15.33100   17.22900  161.02300
      C    C97    16.23200   18.45800  160.88500
      O    O98    17.43700   18.33000  160.65300
      C    C99    14.81400   16.82000  159.63200
      C    C100    14.80300   16.79800  159.65200
      C    C101    13.60500   15.88100  159.60900
      C    C102    14.03000   15.48700  159.67200
      C    C103    13.86000   14.55100  160.31100
      C    C104    13.80600   14.95700  158.27400
      N    N105    12.63200   14.01100  160.89400
      N    N106    14.95000   14.19800  157.78600
      C    C107    11.79500   13.19900  160.25800
      C    C108    15.13800   13.87700  156.51000
      N    N109    12.05400   12.82100  159.01200
      N    N110    14.26100   14.26600  155.59400
      N    N111    10.70200   12.76200  160.86900
      N    N112    16.20600   13.17400  156.15300
      N    N113    15.63800   19.64100  161.03400
      C    C114    16.35300   20.90100  160.82600
      C    C115    17.10700   21.39100  162.05600
      O    O116    18.17000   22.00200  161.92700
      C    C117    15.39300   22.00100  160.33700
      C    C118    16.02100   23.38700  160.12100
      C    C119    16.80900   23.43900  158.81800
      C    C120    14.98500   24.49600  160.17900
      N    N121    16.55300   21.16300  163.24500
      C    C122    17.17800   21.71800  164.45400
      C    C123    18.50200   21.04000  164.75400
      O    O124    18.57700   19.81600  164.87900
      C    C125    16.22400   21.74200  165.65600
      C    C126    15.09500   22.75300  165.46300
      C    C127    14.83900   23.61100  166.68300
      N    N128    14.27900   24.90300  166.29100
      C    C129    14.22400   25.34100  165.03600
      N    N130    14.70000   24.59200  164.04900
      N    N131    13.69900   26.52800  164.76400
      N    N132    19.55000   21.85500  164.82700
      C    C133    20.92200   21.36200  164.90000
      C    C134    21.56400   21.12100  163.54000
      O    O135    22.74200   20.74800  163.46800
      N    N136    20.80000   21.32900  162.46400
      C    C137    21.29200   21.09000  161.10100
      C    C138    21.20900   22.32100  160.18300
      O    O139    21.38700   22.20000  158.97700
      C    C140    20.56600   19.89500  160.46600
      N    N141    20.95600   23.50000  160.75000
      C    C142    20.93700   24.73800  159.95900
      C    C143    22.31600   25.06000  159.39500
      O    O144    23.33500   24.84700  160.04700
      C    C145    20.40200   25.92400  160.77100
      C    C146    18.87600   26.00400  160.82100
      C    C147    18.35900   27.43300  160.98100
      O    O148    18.86700   28.21000  161.80000
      N    N149    17.34400   27.78300  160.19900
      N    N150    22.34500   25.55200  158.16800
      C    C151    23.60000   25.95400  157.54800
      C    C152    24.13100   27.18200  158.28400
      O    O153    23.36300   27.90900  158.92400
      C    C154    23.38000   26.25600  156.07700
      N    N155    25.44000   27.39300  158.21600
      C    C156    26.05700   28.61200  158.73600
      C    C157    25.49800   29.84000  158.00400
      O    O158    25.17600   29.76100  156.81100
      C    C159    27.57200   28.55100  158.53100
      C    C160    27.95400   28.37000  157.06400
      O    O161    27.57800   27.32700  156.47900
      O    O162    28.62700   29.26000  156.50200
      N    N163    25.40000   30.98600  158.70600
      C    C164    24.94200   32.23500  158.09900
      C    C165    25.73000   32.61300  156.83700
      O    O166    25.17900   33.24800  155.93000
      C    C167    25.19800   33.26900  159.20600
      C    C168    25.16900   32.48700  160.46000
      C    C169    25.80000   31.18300  160.11600
      N    N170    26.99700   32.19500  156.77700
      C    C171    27.86200   32.46000  155.63500
      C    C172    27.39500   31.84400  154.32300
      O    O173    27.86200   32.24700  153.25000
      N    N174    26.47300   30.88000  154.38900
      C    C175    25.90100   30.31300  153.15500
      C    C176    25.14100   31.37200  152.35200
      O    O177    25.08600   31.30000  151.12100
      C    C178    25.01700   29.09200  153.42900
      C    C179    24.48900   28.30700  152.21300
      C    C180    25.61500   27.84100  151.30900
      C    C181    23.61800   27.12600  152.63300
      N    N182    24.56700   32.35900  153.04700
      C    C183    23.91400   33.48700  152.36600
      C    C184    24.89300   34.22600  151.48300
      O    O185    24.54600   34.62000  150.37300
      C    C186    23.29700   34.46900  153.35700
      C    C187    22.06500   33.93200  154.00700
      C    C188    21.21600   35.03100  154.64100
      N    N189    19.97700   34.43100  155.13200
      C    C190    19.86600   33.79100  156.29300
      N    N191    20.91900   33.68500  157.09800
      N    N192    18.70300   33.25900  156.65300
      N    N193    26.11000   34.41900  151.99500
      C    C194    27.18100   35.08200  151.25900
      C    C195    27.59400   34.27500  150.03900
      O    O196    27.68900   34.82000  148.93700
      C    C197    28.40700   35.33900  152.15300
      C    C198    28.20500   36.49700  153.13700
      O    O199    29.16000   37.21200  153.46200
      N    N200    26.97200   36.67800  153.62500
      N    N201    27.83100   32.97700  150.23900
      C    C202    28.22700   32.09800  149.14400
      C    C203    27.13700   32.05000  148.07000
      O    O204    27.43900   32.09200  146.86900
      C    C205    28.58800   30.68900  149.64900
      C    C206    29.90100   30.65800  150.43000
      O    O207    30.48900   31.74200  150.63800
      O    O208    30.34000   29.55700  150.86200
      N    N209    25.87600   31.97800  148.49000
      C    C210    24.77400   31.95600  147.52700
      C    C211    24.56500   33.30000  146.78900
      O    O212    24.13400   33.30800  145.63600
      C    C213    23.46900   31.39700  148.13500
      C    C214    23.45600   29.92500  148.61300
      C    C215    22.11200   29.54600  149.21300
      C    C216    23.85700   28.88100  147.52800
      N    N217    24.88900   34.42700  147.42900
      C    C218    24.84600   35.72100  146.71900
      C    C219    25.82400   35.72700  145.52700
      O    O220    25.50400   36.21000  144.43500
      C    C221    25.13600   36.87000  147.67500
      N    N222    27.00600   35.15300  145.74600
      C    C223    28.04200   35.03200  144.72300
      C    C224    27.65700   34.03200  143.62400
      O    O225    27.83000   34.31900  142.43300
      C    C226    29.41300   34.64500  145.35500
      C    C227    30.44000   34.27800  144.28900
      C    C228    29.94200   35.77500  146.22700
      N    N229    27.10600   32.88200  144.02700
      C    C230    26.83600   31.75500  143.10800
      C    C231    25.44400   31.72300  142.43900
      O    O232    25.28500   31.15300  141.34600
      C    C233    27.11000   30.42900  143.81900
      C    C234    28.55400   30.29500  144.33400
      C    C235    28.69100   29.27900  145.45900
      C    C236    29.49000   29.95300  143.20600
      N    N237    24.45000   32.32200  143.09400
      C    C238    23.05600   32.25600  142.64200
      C    C239    22.28100   33.53200  142.99600
      O    O240    21.05100   33.49400  143.20700
      C    C241    22.36800   31.02200  143.24700
      N    N242    23.00500   34.65400  143.06900
      C    C243    22.42200   35.94200  143.46700
      C    C244    21.92300   36.75900  142.28700
      O    O245    21.43800   37.88200  142.45100
      N    N246    22.03300   36.18300  141.09700
      C    C247    21.54400   36.80500  139.86500
      C    C248    20.03800   37.05200  139.90900
      O    O249    19.27300   36.13900  140.19100
      C    C250    21.90900   35.93500  138.66200
      C    C251    21.42500   34.49000  138.80000
      O    O252    21.54200   33.90800  139.90300
      O    O253    20.93300   33.93200  137.79700
      N    N254    19.63600   38.29200  139.62400
      C    C255    18.22700   38.70800  139.69600
      C    C256    17.56500   38.72200  138.31100
      O    O257    18.20700   38.44600  137.28900
      C    C258    18.04800   40.10200  140.38200
      O    O259    18.41300   41.14700  139.46800
      C    C260    18.89700   40.21700  141.65600
      N    N261    16.27300   39.03700  138.28700
      C    C262    15.52800   39.08200  137.03800
      C    C263    16.00700   40.25800  136.18900
      O    O264    15.97800   40.19400  134.95800
      C    C265    13.99600   39.13800  137.28100
      O    O266    13.68200   40.12300  138.27300
      C    C267    13.48000   37.77800  137.72600
