# CIF file generated by openbabel 2.3.2, see http://openbabel.sf.net
data_I
_chemical_name_common '../proteins/pdb/3DWM.pdb'
_cell_length_a 87.934
_cell_length_b 62.988
_cell_length_c 36.537
_cell_angle_alpha 90
_cell_angle_beta 114.65
_cell_angle_gamma 90
_space_group_name_H-M_alt 'C 1 2 1'
_space_group_name_Hall 'C 2y'
loop_
    _symmetry_equiv_pos_as_xyz
    'x,y,z'
    '-x,y,-z'
    '1/2+x,1/2+y,z'
    '1/2-x,1/2+y,-z'
loop_
    _atom_site_type_symbol
    _atom_site_label
    _atom_site_Cartn_x
    _atom_site_Cartn_y
    _atom_site_Cartn_z
      N    N1   -35.02700  -53.48900   -3.21000
      C    C2   -33.59700  -53.32500   -2.86400
      C    C3   -32.93400  -51.93700   -3.25500
      O    O4   -32.30000  -51.82500   -4.34900
      C    C5   -32.77200  -54.50900   -3.46400
      N    N6   -33.02900  -50.91100   -2.37800
      C    C7   -32.14200  -49.70000   -2.48900
      C    C8   -31.08300  -49.55400   -1.37800
      O    O9   -31.30500  -49.99500   -0.26200
      C    C10   -32.95400  -48.33600   -2.75800
      C    C11   -34.47200  -48.61200   -2.96000
      C    C12   -32.66000  -47.20700   -1.73000
      N    N13   -29.94100  -48.95300   -1.69200
      C    C14   -28.87200  -48.76300   -0.70600
      C    C15   -28.91900  -47.37400   -0.16300
      O    O16   -29.16400  -46.42500   -0.90700
      C    C17   -27.51300  -48.81800   -1.37300
      O    O18   -27.51200  -49.91200   -2.28700
      C    C19   -26.37400  -48.98400   -0.33700
      N    N20   -28.64000  -47.22100    1.11800
      C    C21   -28.72500  -45.90300    1.70200
      C    C22   -27.42900  -45.64700    2.36400
      O    O23   -27.00600  -46.44400    3.20000
      C    C24   -29.85600  -45.78400    2.73100
      C    C25   -29.99100  -44.35800    3.15300
      C    C26   -31.17700  -46.26200    2.13700
      N    N27   -26.79900  -44.53800    2.00200
      C    C28   -25.55800  -44.16300    2.62600
      C    C29   -25.93400  -43.26300    3.76900
      O    O30   -26.66700  -42.29700    3.57900
      C    C31   -24.65600  -43.47500    1.62700
      O    O32   -23.86300  -42.50700    2.25900
      N    N33   -25.41900  -43.60000    4.95000
      C    C34   -25.73300  -42.96200    6.24100
      C    C35   -24.56400  -42.14000    6.73100
      O    O36   -23.46300  -42.67600    6.82300
      C    C37   -25.98300  -44.06300    7.29700
      C    C38   -27.10600  -45.00100    6.80000
      C    C39   -26.26100  -43.47300    8.70800
      C    C40   -28.42200  -44.28000    6.32400
      N    N41   -24.78200  -40.85400    7.08000
      C    C42   -23.59800  -40.05400    7.43000
      C    C43   -23.16300  -40.36300    8.85300
      O    O44   -23.96500  -40.93300    9.60800
      C    C45   -24.08800  -38.60800    7.26300
      C    C46   -25.55600  -38.68200    7.54600
      C    C47   -26.02400  -40.06800    7.17000
      N    N48   -21.91400  -40.02100    9.21200
      C    C49   -21.34100  -40.47700   10.50600
      C    C50   -22.33100  -40.19200   11.65700
      O    O51   -22.75600  -41.12000   12.37100
      C    C52   -19.92300  -39.91400   10.81600
      O    O53   -19.96100  -38.50000   10.74400
      C    C54   -18.88400  -40.37000    9.82400
      N    N55   -22.76600  -38.93200   11.76700
      C    C56   -23.75700  -38.52900   12.78800
      C    C57   -24.99000  -39.45400   12.99500
      O    O58   -25.35300  -39.73700   14.13300
      C    C59   -24.16300  -36.99800   12.69700
      C    C60   -24.75500  -36.55200   14.05300
      C    C61   -25.08900  -36.72100   11.50800
      C    C62   -24.95800  -35.02600   14.25500
      N    N63   -25.58700  -39.96700   11.91900
      C    C64   -26.68700  -40.94800   12.04000
      C    C65   -26.36100  -42.44500   12.16500
      O    O66   -27.28400  -43.23900   12.32500
      C    C67   -27.69400  -40.76800   10.91000
      C    C68   -28.27400  -39.35700   10.85700
      C    C69   -29.22800  -39.23700    9.68300
      C    C70   -28.94000  -38.94700   12.17700
      N    N71   -25.09400  -42.84700   12.11200
      C    C72   -24.78200  -44.27700   12.26800
      C    C73   -25.17700  -44.93900   13.59300
      O    O74   -25.31900  -46.17400   13.64300
      C    C75   -23.33100  -44.55300   11.96100
      C    C76   -23.09700  -44.50500   10.49000
      C    C77   -21.80500  -43.86200   10.18700
      N    N78   -21.65800  -43.59700    8.77300
      C    C79   -20.51000  -43.22300    8.21400
      N    N80   -19.42400  -43.07300    8.93700
      N    N81   -20.43200  -43.00700    6.91800
      N    N82   -25.35300  -44.14200   14.67900
      C    C83   -25.88000  -44.81500   15.86700
      C    C84   -27.20100  -45.53600   15.54700
      O    O85   -27.39900  -46.69700   15.93200
      C    C86   -26.08800  -43.66100   16.86700
      C    C87   -25.11000  -42.62600   16.46700
      C    C88   -25.05200  -42.71400   14.95500
      N    N89   -28.07900  -44.87400   14.81200
      C    C90   -29.36600  -45.43400   14.59100
      C    C91   -29.26400  -46.72000   13.83100
      O    O92   -30.20800  -47.50900   13.91500
      C    C93   -30.27100  -44.44100   13.87600
      C    C94   -30.46900  -43.17100   14.63800
      N    N95   -31.58300  -42.93800   15.42400
      C    C96   -29.67400  -42.07900   14.76300
      C    C97   -31.47900  -41.74100   15.97100
      N    N98   -30.32400  -41.21100   15.60300
      N    N99   -28.13700  -46.93000   13.11700
      C    C100   -27.89800  -48.12200   12.25600
      C    C101   -26.82300  -49.08600   12.80300
      O    O102   -26.18300  -49.82000   12.02900
      C    C103   -27.52800  -47.75900   10.77400
      O    O104   -26.32700  -46.97400   10.71700
      C    C105   -28.60900  -47.01000   10.11600
      N    N106   -26.62200  -49.08400   14.12300
      C    C107   -25.60800  -49.91800   14.77200
      C    C108   -24.22700  -49.59100   14.22600
      O    O109   -23.40300  -50.46600   14.06900
      N    N110   -23.97600  -48.33000   13.88400
      C    C111   -22.71300  -47.95600   13.24700
      C    C112   -22.51500  -48.41600   11.80100
      O    O113   -21.41300  -48.30500   11.25800
      N    N114   -23.56300  -48.92000   11.15100
      C    C115   -23.42000  -49.20100    9.70100
      C    C116   -23.36100  -47.93600    8.83900
      O    O117   -24.21200  -47.04400    8.98400
      C    C118   -24.50100  -50.14300    9.19600
      C    C119   -24.26400  -51.49600    9.68500
      C    C120   -25.47500  -52.32300    9.54800
      O    O121   -26.28600  -52.41400   10.47700
      N    N122   -25.64800  -52.92300    8.36800
      N    N123   -22.35000  -47.89900    7.96600
      C    C124   -22.07700  -46.82800    6.99300
      C    C125   -23.15500  -46.76700    5.90100
      O    O126   -23.40400  -45.71400    5.27800
      C    C127   -20.63200  -47.02000    6.35800
      N    N128   -23.80900  -47.90800    5.71100
      C    C129   -24.64200  -48.16000    4.55300
      C    C130   -25.64800  -49.20800    4.92500
      O    O131   -25.27000  -50.19400    5.52500
      C    C132   -23.77700  -48.72300    3.41100
      O    O133   -24.40100  -48.52500    2.14400
      N    N134   -26.91400  -49.01100    4.56800
      C    C135   -27.94000  -49.98700    4.85300
      C    C136   -28.88300  -50.04800    3.68600
      O    O137   -28.96100  -49.10700    2.89200
      C    C138   -28.77000  -49.63400    6.08200
      C    C139   -27.91100  -49.62000    7.33600
      C    C140   -29.49700  -48.33100    5.87800
      N    N141   -29.61200  -51.15500    3.61400
      C    C142   -30.59400  -51.46300    2.57800
      C    C143   -31.98600  -50.91000    2.95800
      O    O144   -32.33700  -50.92300    4.12300
      C    C145   -30.66700  -52.98000    2.50600
      O    O146   -31.28900  -53.38900    1.33900
      N    N147   -32.78000  -50.38800    2.01300
      C    C148   -34.20800  -50.06300    2.30800
      C    C149   -35.11600  -50.29400    1.11000
      O    O150   -34.69700  -50.91100    0.12100
      C    C151   -34.36800  -48.66500    2.81600
      N    N152   -36.35600  -49.80800    1.19000
      C    C153   -37.28900  -49.89600    0.05700
      C    C154   -38.50800  -48.98300    0.20000
      O    O155   -39.00900  -48.74400    1.30100
      C    C156   -37.74300  -51.36000   -0.18500
      O    O157   -38.22600  -51.96900    1.01100
      N    N158   -38.99200  -48.49900   -0.93600
      C    C159   -40.19100  -47.67100   -0.97500
      C    C160   -40.28800  -47.13600   -2.37200
      O    O161   -39.29500  -47.10300   -3.09100
      N    N162   -41.46700  -46.71000   -2.77900
      C    C163   -41.56400  -46.09800   -4.09900
      C    C164   -41.16100  -44.61300   -4.04000
      O    O165   -40.77100  -44.02900   -5.08000
      C    C166   -42.95300  -46.30700   -4.74500
      C    C167   -43.38400  -47.80100   -4.82500
      O    O168   -44.61000  -48.09500   -4.71300
      O    O169   -42.50000  -48.67800   -4.99100
      N    N170   -41.22100  -44.00600   -2.84600
      C    C171   -40.80400  -42.61500   -2.71200
      C    C172   -39.83500  -42.41300   -1.58800
      O    O173   -39.66900  -43.28600   -0.73400
      C    C174   -41.98300  -41.65200   -2.56500
      O    O175   -42.61400  -41.84100   -1.29300
      C    C176   -42.99400  -41.87400   -3.69900
      N    N177   -39.16700  -41.26300   -1.59400
      C    C178   -38.25300  -40.93500   -0.50900
      C    C179   -38.96600  -41.03500    0.84000
      O    O180   -38.39100  -41.53000    1.83400
      C    C181   -37.69500  -39.53600   -0.68300
      C    C182   -36.70900  -39.02700    0.38600
      C    C183   -35.56800  -40.05000    0.68900
      C    C184   -36.14900  -37.66800   -0.00900
      N    N185   -40.21300  -40.56000    0.87200
      C    C186   -41.06700  -40.71300    2.03700
      C    C187   -41.12500  -42.16500    2.50700
      O    O188   -40.94100  -42.46500    3.67600
      N    N189   -41.35400  -43.06900    1.57000
      C    C190   -41.60500  -44.47000    1.87600
      C    C191   -40.33700  -45.17100    2.35900
      O    O192   -40.39800  -46.11900    3.15700
      C    C193   -42.19100  -45.19200    0.62000
      N    N194   -39.20400  -44.70500    1.83900
      C    C195   -37.89200  -45.20300    2.21700
      C    C196   -37.54900  -44.71000    3.61500
      O    O197   -37.09900  -45.48100    4.48000
      C    C198   -36.84500  -44.77700    1.16700
      C    C199   -35.42900  -45.00400    1.66500
      C    C200   -37.08600  -45.55600   -0.13600
      N    N201   -37.81600  -43.43100    3.86200
      C    C202   -37.63700  -42.91500    5.20300
      C    C203   -38.41200  -43.68300    6.27900
      O    O204   -37.83100  -44.08200    7.30000
      C    C205   -37.89700  -41.40900    5.29600
      C    C206   -36.78400  -40.63000    4.55300
      C    C207   -38.00100  -40.98900    6.78800
      C    C208   -36.92400  -39.09500    4.55800
      N    N209   -39.69900  -43.92600    6.08700
      C    C210   -40.41600  -44.62700    7.15200
      C    C211   -40.01000  -46.12400    7.22100
      O    O212   -40.19100  -46.78900    8.22900
      C    C213   -41.92400  -44.44100    7.04700
      O    O214   -42.41200  -45.26600    6.03500
      N    N215   -39.42000  -46.64000    6.15800
      C    C216   -38.93100  -47.98600    6.17800
      C    C217   -37.64900  -48.08900    7.03600
      O    O218   -37.52900  -48.97700    7.88100
      C    C219   -38.67000  -48.43700    4.75200
      C    C220   -38.29300  -49.88200    4.67500
      O    O221   -39.06400  -50.69700    5.22500
      O    O222   -37.25100  -50.19700    4.06800
      N    N223   -36.70200  -47.18100    6.82100
      C    C224   -35.50500  -47.11500    7.63000
      C    C225   -35.89800  -46.98000    9.09400
      O    O226   -35.24800  -47.53000    9.98600
      C    C227   -34.68200  -45.88500    7.23600
      C    C228   -34.04900  -45.80500    5.83800
      C    C229   -33.47700  -44.43400    5.55100
      C    C230   -32.97300  -46.86400    5.68800
      N    N231   -36.95200  -46.20000    9.33700
      C    C232   -37.41200  -45.91700   10.69600
      C    C233   -37.83700  -47.23300   11.30500
      O    O234   -37.49500  -47.52900   12.46200
      C    C235   -38.58500  -44.94000   10.68200
      C    C236   -39.08200  -44.60900   12.04900
      C    C237   -38.00100  -44.03300   12.98500
      O    O238   -37.14600  -43.22400   12.55300
      O    O239   -37.99500  -44.38200   14.18500
      N    N240   -38.58800  -47.99400   10.49800
      C    C241   -39.04700  -49.31800   10.82200
      C    C242   -37.85900  -50.13200   11.31400
      O    O243   -37.92200  -50.67100   12.39900
      C    C244   -39.72400  -49.99800    9.60300
      N    N245   -36.76700  -50.17900   10.56400
      C    C246   -35.62600  -50.99200   10.98300
      C    C247   -34.60500  -50.34000   11.93400
      O    O248   -33.78600  -51.05400   12.50400
      C    C249   -34.89100  -51.52300    9.75900
      C    C250   -35.68000  -52.60900    9.02100
      O    O251   -36.57400  -53.26400    9.58700
      N    N252   -35.35300  -52.80200    7.74800
      N    N253   -34.64500  -49.00700   12.09000
      C    C254   -33.55000  -48.22200   12.66100
      C    C255   -34.12000  -47.02200   13.35200
      O    O256   -34.03900  -45.88600   12.90100
      C    C257   -32.61500  -47.76400   11.57400
      C    C258   -31.99900  -48.87800   10.75300
      C    C259   -32.15600  -48.91200    9.37300
      C    C260   -31.23500  -49.88400   11.35100
      C    C261   -31.56100  -49.90700    8.59800
      C    C262   -30.65300  -50.89200   10.59300
      C    C263   -30.82600  -50.89500    9.21200
      O    O264   -30.26800  -51.88600    8.43900
      N    N265   -34.68700  -47.32700   14.49500
      C    C266   -35.55900  -46.46500   15.22700
      C    C267   -34.86400  -45.14500   15.56400
      O    O268   -33.69600  -45.13600   16.03100
      C    C269   -36.01700  -47.26500   16.47000
      O    O270   -36.61100  -46.47100   17.48200
      N    N271   -35.56600  -44.04000   15.28500
      C    C272   -35.14200  -42.72000   15.73900
      C    C273   -34.49300  -41.92500   14.64000
      O    O274   -34.33200  -40.70100   14.74800
      N    N275   -34.09600  -42.63800   13.59500
      C    C276   -33.45300  -42.06600   12.41900
      C    C277   -34.32700  -40.89700   11.84400
      O    O278   -33.89900  -39.75800   11.63600
      C    C279   -33.25000  -43.25800   11.40500
      C    C280   -31.94600  -43.21000   10.55800
      C    C281   -34.56100  -43.59600   10.57300
      C    C282   -31.30300  -41.88300   10.42900
      N    N283   -35.59500  -41.20200   11.65600
      C    C284   -36.50900  -40.37200   10.92300
      C    C285   -36.68200  -38.92800   11.46400
      O    O286   -36.55200  -37.95500   10.70200
      C    C287   -37.83000  -41.11300   10.86800
      O    O288   -38.80400  -40.32300   10.25800
      N    N289   -36.96400  -38.77900   12.76200
      C    C290   -37.13700  -37.42600   13.33900
      C    C291   -35.91700  -36.55100   13.01100
      O    O292   -36.03900  -35.33600   12.85300
      C    C293   -37.48800  -37.43500   14.85300
      C    C294   -36.87300  -38.63700   15.65400
      C    C295   -37.52900  -38.83200   17.01200
      O    O296   -38.16100  -37.84700   17.45600
      O    O297   -37.43500  -39.94600   17.61400
      N    N298   -34.75400  -37.16500   12.84000
      C    C299   -33.55500  -36.36000   12.65300
      C    C300   -33.45300  -35.77200   11.26300
      O    O301   -32.66500  -34.86300   11.03700
      C    C302   -32.32000  -37.16800   13.00100
      C    C303   -32.53800  -37.94500   14.26500
      C    C304   -31.32000  -38.02400   15.15800
      N    N305   -30.30400  -36.96900   14.92600
      C    C306   -29.10500  -36.92200   15.54500
      N    N307   -28.78200  -37.89200   16.44800
      N    N308   -28.23400  -35.91700   15.26300
      N    N309   -34.25500  -36.29600   10.33900
      C    C310   -34.23600  -35.88900    8.92700
      C    C311   -35.33500  -34.87400    8.58300
      O    O312   -35.25400  -34.17700    7.55600
      C    C313   -34.46500  -37.11300    8.01900
      C    C314   -33.59000  -38.36000    8.03500
      C    C315   -34.07200  -39.46900    7.10300
      C    C316   -32.19300  -37.95600    7.66900
      N    N317   -36.37600  -34.83800    9.41100
      C    C318   -37.56200  -34.04000    9.15700
      C    C319   -37.48000  -32.67700    9.82000
      O    O320   -36.77300  -32.49100   10.81400
      C    C321   -38.83000  -34.78300    9.61800
      C    C322   -38.99400  -36.15100    8.97500
      S    S323   -38.89200  -36.08400    7.17500
      C    C324   -40.40900  -35.20400    6.86400
      N    N325   -38.19100  -31.71200    9.26100
      C    C326   -38.29800  -30.43200    9.92400
      C    C327   -39.25400  -30.59500   11.11900
      O    O328   -40.44400  -30.96100   10.91500
      C    C329   -38.81000  -29.35800    8.95500
      C    C330   -38.81300  -27.98300    9.56200
      O    O331   -38.58500  -27.81800   10.78600
      O    O332   -39.06100  -27.05600    8.79700
      N    N333   -38.75700  -30.28800   12.35000
      C    C334   -39.59700  -30.35500   13.57700
      C    C335   -40.77700  -29.37700   13.43600
      O    O336   -41.89300  -29.71300   13.85500
      C    C337   -38.65800  -29.88600   14.70200
      C    C338   -37.59400  -29.02900   13.96900
      C    C339   -37.39900  -29.77700   12.64100
      N    N340   -40.53600  -28.20100   12.83200
      C    C341   -41.59100  -27.19200   12.66500
      C    C342   -42.69000  -27.72100   11.72600
      O    O343   -43.78800  -28.07500   12.20000
      C    C344   -41.02200  -25.87400   12.16200
      N    N345   -42.41700  -27.82500   10.42000
      C    C346   -43.50900  -28.18000    9.49200
      C    C347   -43.43700  -29.61400    8.90000
      O    O348   -42.35900  -30.05500    8.38500
      C    C349   -43.61600  -27.12900    8.39300
      O    O350   -42.34000  -26.98300    7.80600
      N    N351   -44.58600  -30.33900    8.94200
      C    C352   -44.61900  -31.78200    8.59800
      C    C353   -44.38400  -32.10200    7.10900
      O    O354   -44.91800  -31.43400    6.23500
      C    C355   -46.03700  -32.22400    9.00700
      C    C356   -46.66500  -31.04900    9.72100
      C    C357   -45.92400  -29.82100    9.27900
      N    N358   -43.59200  -33.13400    6.82100
      C    C359   -43.47600  -33.61700    5.44400
      C    C360   -42.31900  -32.95500    4.75800
      O    O361   -41.87400  -33.41900    3.69900
      N    N362   -41.82300  -31.87800    5.38200
      C    C363   -40.73900  -31.06400    4.83700
      C    C364   -39.48000  -31.48200    5.57000
      O    O365   -39.50700  -31.71700    6.77600
      C    C366   -41.03200  -29.53200    4.97200
      N    N367   -38.41400  -31.65500    4.78900
      C    C368   -37.09700  -32.03600    5.27100
      C    C369   -36.45000  -30.94100    6.09100
      O    O370   -36.76500  -29.76300    5.96400
      C    C371   -36.17100  -32.31300    4.10300
      C    C372   -36.14400  -33.61300    3.32300
      C    C373   -35.00900  -33.42100    2.30600
      C    C374   -35.95200  -34.85000    4.25900
      N    N375   -35.50200  -31.35700    6.89900
      C    C376   -34.86600  -30.50600    7.83100
      C    C377   -33.93900  -29.52200    7.09400
      O    O378   -33.28300  -29.92200    6.11600
      C    C379   -34.07600  -31.41000    8.76100
      C    C380   -33.53200  -30.69600    9.93800
      N    N381   -32.39100  -29.92800    9.86100
      C    C382   -34.00500  -30.56300   11.19700
      C    C383   -32.15900  -29.37800   11.04100
      N    N384   -33.13100  -29.73700   11.86400
      N    N385   -33.88700  -28.26400    7.55200
      C    C386   -33.09900  -27.25900    6.85200
      C    C387   -31.61900  -27.63200    6.64200
      O    O388   -31.04100  -27.28900    5.59900
      C    C389   -33.20200  -25.89000    7.51400
      C    C390   -34.22900  -24.99500    6.86100
      C    C391   -34.50800  -23.78500    7.73900
      N    N392   -33.34600  -22.89400    7.85700
      C    C393   -33.29000  -21.80400    8.62200
      N    N394   -34.31500  -21.45000    9.36200
      N    N395   -32.19200  -21.06400    8.67200
      N    N396   -31.01300  -28.32500    7.60900
      C    C397   -29.56900  -28.63100    7.56100
      C    C398   -29.25900  -30.07900    7.22100
      O    O399   -28.15700  -30.58300    7.49100
      C    C400   -28.88200  -28.23700    8.86200
      C    C401   -29.23200  -26.86600    9.30400
      C    C402   -28.92000  -25.76300    8.49200
      C    C403   -29.90700  -26.65800   10.51900
      C    C404   -29.25400  -24.48400    8.88000
      C    C405   -30.25100  -25.36100   10.93900
      C    C406   -29.93800  -24.27800   10.10700
      N    N407   -30.23100  -30.75000    6.61400
      C    C408   -29.97900  -32.06900    6.06800
      C    C409   -30.19400  -32.03600    4.57500
      O    O410   -31.18300  -31.47900    4.09100
      C    C411   -30.88000  -33.13900    6.68900
      C    C412   -30.34500  -34.50800    6.34700
      C    C413   -30.96400  -32.98200    8.22100
      N    N414   -29.23900  -32.62800    3.86400
      C    C415   -29.34700  -32.90900    2.43100
      C    C416   -29.67900  -34.37500    2.18200
      O    O417   -29.26200  -35.24900    2.94000
      C    C418   -28.03000  -32.56400    1.75000
      C    C419   -27.85400  -31.05600    1.57000
      O    O420   -28.79800  -30.35300    1.19000
      N    N421   -26.63900  -30.55800    1.84100
      N    N422   -30.47400  -34.62300    1.14100
      C    C423   -30.72300  -35.96500    0.60700
      C    C424   -30.69600  -35.96900   -0.91100
      O    O425   -31.42000  -35.24300   -1.52700
      C    C426   -32.03700  -36.53000    1.04800
      C    C427   -32.18700  -36.38300    2.57500
      C    C428   -32.04300  -37.95300    0.60800
      C    C429   -33.13300  -37.36800    3.31400
      N    N430   -29.82000  -36.78500   -1.49100
      C    C431   -29.73500  -37.02700   -2.96200
      C    C432   -30.28800  -38.41000   -3.26400
      O    O433   -30.05300  -39.35000   -2.51200
      C    C434   -28.27800  -36.97600   -3.44900
      C    C435   -27.71200  -35.58100   -3.42800
      C    C436   -27.39900  -34.95100   -2.21100
      C    C437   -27.52500  -34.86200   -4.63000
      C    C438   -26.89600  -33.64100   -2.18300
      C    C439   -27.03600  -33.54000   -4.63100
      C    C440   -26.70900  -32.93600   -3.40200
      O    O441   -26.17500  -31.64700   -3.36600
      N    N442   -31.06900  -38.52700   -4.32800
      C    C443   -31.39500  -39.84000   -4.86900
      C    C444   -30.50800  -39.90100   -6.08100
      O    O445   -30.54800  -39.01200   -6.93700
      C    C446   -32.87000  -39.97500   -5.22500
      C    C447   -33.08300  -41.12400   -6.21900
      C    C448   -33.66200  -40.21200   -3.97400
      N    N449   -29.61200  -40.86600   -6.08000
      C    C450   -28.65300  -40.96000   -7.13700
      C    C451   -27.92400  -39.72500   -7.62900
      O    O452   -27.85000  -39.58700   -8.84900
      C    C453   -29.40800  -41.44900   -8.37800
      C    C454   -29.44900  -42.88300   -8.43300
      O    O455   -28.46300  -43.54500   -8.03400
      N    N456   -30.59900  -43.43200   -8.82900
      N    N457   -27.38600  -38.82100   -6.82800
      C    C458   -26.83000  -37.56700   -7.50700
      C    C459   -27.82100  -36.44100   -7.88900
      O    O460   -27.37600  -35.35000   -8.27600
      C    C461   -25.80400  -37.81200   -8.69300
      C    C462   -26.42000  -37.66900  -10.17500
      O    O463   -27.65000  -37.59800  -10.39800
      O    O464   -25.64000  -37.65900  -11.17600
      N    N465   -29.13100  -36.70000   -7.78500
      C    C466   -30.13200  -35.65000   -7.94100
      C    C467   -30.59900  -35.18400   -6.53600
      O    O468   -30.93600  -35.98700   -5.65400
      C    C469   -31.31900  -36.12800   -8.87200
      N    N470   -30.55000  -33.87400   -6.32500
      C    C471   -30.97400  -33.26800   -5.09600
      C    C472   -32.49900  -33.32600   -5.01800
      O    O473   -33.20200  -32.74500   -5.85000
      C    C474   -30.45600  -31.83900   -5.06100
      C    C475   -30.68600  -31.14900   -3.71900
      O    O476   -31.61100  -31.50600   -2.93900
      O    O477   -29.94400  -30.19800   -3.44200
      N    N478   -33.01800  -34.02200   -4.01100
      C    C479   -34.46800  -34.19500   -3.87500
      C    C480   -35.26900  -32.87100   -3.78900
      O    O481   -36.44100  -32.79800   -4.24300
      C    C482   -34.85100  -35.16500   -2.71300
      C    C483   -34.03800  -36.43300   -2.82000
      C    C484   -34.67100  -34.53500   -1.37400
      N    N485   -34.64300  -31.83700   -3.20800
      C    C486   -35.23900  -30.50300   -3.21100
      C    C487   -35.60300  -30.05000   -4.63900
      O    O488   -36.33300  -29.07100   -4.79600
      C    C489   -34.34700  -29.48100   -2.49500
      C    C490   -34.54400  -29.50600   -1.00400
      C    C491   -33.42600  -28.78400   -0.28200
      N    N492   -33.70300  -28.62900    1.15400
      C    C493   -33.30400  -29.47800    2.10600
      N    N494   -32.60700  -30.56700    1.78600
      N    N495   -33.61000  -29.24400    3.37900
      N    N496   -35.12100  -30.75700   -5.67200
      C    C497   -35.48600  -30.38700   -7.04000
      C    C498   -36.36400  -31.36600   -7.72600
      O    O499   -36.80400  -31.11900   -8.83400
      C    C500   -34.26300  -30.04300   -7.87600
      C    C501   -33.52300  -28.91700   -7.31200
      C    C502   -32.17700  -29.02900   -7.02800
      C    C503   -34.20800  -27.75400   -6.95700
      C    C504   -31.48000  -27.97000   -6.41300
      C    C505   -33.54400  -26.67100   -6.33400
      C    C506   -32.17000  -26.77900   -6.06000
      N    N507   -36.66200  -32.45900   -7.04500
      C    C508   -37.49200  -33.51000   -7.61600
      C    C509   -38.75700  -33.81200   -6.78900
      O    O510   -39.37200  -34.83200   -6.98000
      C    C511   -36.64000  -34.77800   -7.80400
      O    O512   -36.07200  -35.22300   -6.57500
      N    N513   -39.14500  -32.94400   -5.86600
      C    C514   -40.35800  -33.20400   -5.10900
      C    C515   -40.18300  -33.61300   -3.64700
      O    O516   -41.15600  -34.07800   -3.00800
      N    N517   -38.97100  -33.43900   -3.10100
      C    C518   -38.68400  -33.84800   -1.72500
      C    C519   -39.04900  -35.30100   -1.39300
      O    O520   -38.53200  -36.23700   -2.01000
      N    N521   -39.97000  -35.50200   -0.43900
      C    C522   -40.33100  -36.86700   -0.03000
      C    C523   -41.15600  -37.57300   -1.07200
      O    O524   -41.29300  -38.79700   -1.05000
      C    C525   -41.08500  -36.88200    1.28500
      C    C526   -40.36400  -36.42400    2.56400
      C    C527   -40.66100  -37.46100    3.66400
      C    C528   -38.82500  -36.17400    2.43200
      N    N529   -41.73100  -36.79300   -1.97900
      C    C530   -42.49600  -37.36900   -3.05900
      C    C531   -41.55400  -37.88200   -4.12900
      O    O532   -41.96200  -38.68800   -4.93600
      C    C533   -43.49100  -36.37800   -3.62700
      N    N534   -40.29700  -37.45300   -4.12800
      C    C535   -39.33700  -37.93900   -5.11400
      C    C536   -39.40800  -39.46400   -5.38900
      O    O537   -39.19900  -40.29600   -4.48500
      C    C538   -37.91900  -37.53100   -4.67900
      O    O539   -37.79800  -36.10400   -4.75200
      C    C540   -36.82500  -38.20400   -5.55100
      N    N541   -39.71000  -39.83600   -6.63400
      C    C542   -39.82800  -41.27600   -7.01900
      C    C543   -38.51900  -42.08400   -6.86100
      O    O544   -37.39300  -41.54100   -7.01700
      C    C545   -40.36100  -41.39300   -8.42100
      N    N546   -38.66600  -43.36600   -6.53500
      C    C547   -37.49500  -44.21500   -6.17400
      C    C548   -37.51300  -45.55200   -6.93600
      O    O549   -38.49100  -46.30200   -6.85300
      C    C550   -37.46300  -44.45800   -4.61300
      C    C551   -37.38000  -43.12100   -3.85300
      C    C552   -36.38600  -45.49500   -4.20400
      C    C553   -36.08900  -42.89300   -3.21500
      N    N554   -36.45300  -45.83000   -7.69400
      C    C555   -36.42400  -46.99500   -8.62300
      C    C556   -35.61900  -48.11600   -7.98800
      O    O557   -34.79500  -47.86700   -7.09400
      C    C558   -35.80600  -46.61000  -10.00000
      N    N559   -35.80900  -49.34600   -8.44700
      C    C560   -34.98400  -50.40200   -7.87400
      C    C561   -33.50400  -50.15700   -8.22100
      O    O562   -33.19900  -49.64800   -9.31800
      C    C563   -35.45000  -51.80600   -8.26400
      C    C564   -34.76600  -52.89000   -7.42200
      O    O565   -34.55500  -52.68000   -6.17700
      O    O566   -34.42400  -53.95400   -8.01200
      N    N567   -32.60200  -50.44500   -7.26600
      C    C568   -31.16100  -50.15600   -7.43800
      C    C569   -30.77500  -48.67800   -7.50600
      O    O570   -29.64700  -48.36400   -7.82500
      N    N571   -31.70000  -47.75400   -7.21800
      C    C572   -31.33000  -46.36500   -6.97300
      C    C573   -30.48100  -46.38400   -5.71700
      O    O574   -30.52200  -47.34600   -4.94200
      C    C575   -32.56400  -45.50800   -6.69200
      C    C576   -33.20100  -44.93200   -7.94300
      O    O577   -32.71700  -45.19300   -9.05900
      O    O578   -34.20400  -44.20100   -7.82000
      N    N579   -29.71400  -45.32400   -5.49900
      C    C580   -29.02100  -45.15800   -4.24600
      C    C581   -29.54900  -43.89400   -3.56900
      O    O582   -30.02600  -42.98700   -4.25400
      C    C583   -27.54400  -44.98300   -4.53500
      O    O584   -27.33300  -43.67000   -5.03000
      N    N585   -29.45500  -43.82000   -2.24400
      C    C586   -29.86200  -42.61900   -1.50500
      C    C587   -28.72800  -42.13600   -0.62200
      O    O588   -27.96400  -42.92100   -0.08000
      C    C589   -31.10500  -42.86700   -0.62600
      C    C590   -31.47000  -41.61500    0.13700
      C    C591   -32.30000  -43.39800   -1.46600
      N    N592   -28.60000  -40.84000   -0.46700
      C    C593   -27.49600  -40.34600    0.28900
      C    C594   -27.93000  -39.19200    1.18800
      O    O595   -28.44400  -38.15100    0.71900
      C    C596   -26.36900  -39.97000   -0.65200
      O    O597   -26.36300  -40.91700   -1.73400
      C    C598   -24.98700  -39.94300    0.07200
      N    N599   -27.76700  -39.42400    2.48800
      C    C600   -28.04900  -38.41600    3.49400
      C    C601   -26.76400  -37.73800    3.95600
      O    O602   -25.76000  -38.41900    4.31800
      C    C603   -28.75500  -39.04700    4.68200
      C    C604   -29.98800  -39.79700    4.17400
      C    C605   -29.10000  -37.99000    5.74200
      C    C606   -30.41400  -40.96100    5.03500
      N    N607   -26.79100  -36.40400    3.94800
      C    C608   -25.62600  -35.63500    4.39200
      C    C609   -25.93300  -34.35600    5.12600
      O    O610   -26.82500  -33.57900    4.70500
      C    C611   -24.71200  -35.29300    3.23600
      C    C612   -23.87800  -36.41500    2.66500
      C    C613   -23.51700  -35.91100    1.27600
      C    C614   -22.64200  -36.87500    3.57000
      N    N615   -25.17300  -34.09800    6.21400
      C    C616   -25.37400  -32.80900    6.89100
      C    C617   -25.17200  -31.69500    5.86700
      O    O618   -24.21400  -31.72800    5.07900
      C    C619   -24.25200  -32.77700    7.93900
      C    C620   -23.85100  -34.18700    8.14100
      C    C621   -24.12500  -34.91400    6.85200
      N    N622   -26.07000  -30.72900    5.82800
      C    C623   -25.78500  -29.58400    4.98300
      C    C624   -24.60700  -28.74300    5.56100
      O    O625   -24.36500  -28.76900    6.78400
      C    C626   -27.02200  -28.77500    4.77000
      N    N627   -23.85700  -28.07100    4.67100
      C    C628   -22.82300  -27.04100    5.01900
      C    C629   -23.10500  -25.61800    4.38500
      O    O630   -23.41000  -25.43900    3.15300
      C    C631   -21.35100  -27.48500    4.62700
      C    C632   -20.28200  -26.79000    5.52500
      C    C633   -21.20900  -29.02800    4.66300
