# CIF file generated by openbabel 2.3.2, see http://openbabel.sf.net
data_I
_chemical_name_common '../proteins/pdb/3FAV.pdb'
_cell_length_a 160.34
_cell_length_b 23.93
_cell_length_c 83.86
_cell_angle_alpha 90
_cell_angle_beta 94.36
_cell_angle_gamma 90
_space_group_name_H-M_alt 'C 1 2 1'
_space_group_name_Hall 'C 2y'
loop_
    _symmetry_equiv_pos_as_xyz
    'x,y,z'
    '-x,y,-z'
    '1/2+x,1/2+y,z'
    '1/2-x,1/2+y,-z'
loop_
    _atom_site_type_symbol
    _atom_site_label
    _atom_site_Cartn_x
    _atom_site_Cartn_y
    _atom_site_Cartn_z
      N    N1    97.74100   18.40000    7.08900
      C    C2    96.88300   19.01300    8.08500
      C    C3    96.76800   20.46400    7.74500
      O    O4    95.71200   21.02700    7.72400
      C    C5    97.44400   18.85600    9.48400
      C    C6    96.65500   19.58600   10.56900
      C    C7    96.46500   18.74800   11.78500
      C    C8    97.23400   20.86600   10.97200
      N    N9    97.88700   21.07300    7.45600
      C    C10    97.87500   22.35700    6.81900
      C    C11    96.77800   22.59700    5.79600
      O    O12    96.05300   23.52800    5.89700
      C    C13    99.17900   22.62000    6.25400
      N    N14    96.63600   21.72900    4.82500
      C    C15    95.65600   21.92700    3.77400
      C    C16    94.29900   21.38200    4.13600
      O    O17    93.27900   21.81900    3.61600
      C    C18    96.11700   21.18100    2.54900
      C    C19    96.03400   19.69500    2.71400
      C    C20    96.85900   18.94100    1.69800
      O    O21    97.29400   19.49700    0.67800
      N    N22    97.10100   17.66600    1.98400
      N    N23    94.29800   20.40900    5.02400
      C    C24    93.03600   19.90300    5.52600
      C    C25    92.31900   20.96100    6.35200
      O    O26    91.08900   20.97100    6.41500
      C    C27    93.24300   18.63600    6.34800
      C    C28    91.95300   17.89000    6.61800
      C    C29    91.15300   17.67000    5.35000
      O    O30    91.74300   17.19900    4.35700
      O    O31    89.94400   17.97900    5.33800
      N    N32    93.08900   21.85300    6.97200
      C    C33    92.53800   22.92900    7.79500
      C    C34    91.53400   23.79200    7.03300
      O    O35    90.46400   24.10700    7.55100
      C    C36    93.65300   23.80200    8.35900
      N    N37    91.88900   24.18200    5.81200
      C    C38    91.01500   25.00200    4.99000
      C    C39    89.70600   24.30100    4.67000
      O    O40    88.64200   24.91400    4.67800
      N    N41    89.79000   23.00700    4.38000
      C    C42    88.61300   22.21900    4.07300
      C    C43    87.68000   22.10700    5.27800
      O    O44    86.46600   22.12500    5.12900
      C    C45    89.00700   20.83100    3.58000
      C    C46    87.81800   20.03100    3.08400
      O    O47    86.93200   20.56400    2.41900
      N    N48    87.79700   18.74500    3.39800
      N    N49    88.24100   22.00000    6.47500
      C    C50    87.40200   21.91000    7.66100
      C    C51    86.66900   23.22700    7.92500
      O    O52    85.49900   23.23200    8.32400
      C    C53    88.19500   21.49900    8.90000
      C    C54    87.32800   21.26800   10.10500
      C    C55    86.73600   20.03300   10.31900
      C    C56    87.06800   22.29900   10.99700
      C    C57    85.91900   19.81800   11.41300
      C    C58    86.25300   22.09300   12.09500
      C    C59    85.67700   20.85300   12.30300
      N    N60    87.36400   24.34000    7.71400
      C    C61    86.75500   25.64900    7.88900
      C    C62    85.63500   25.83000    6.87700
      O    O63    84.63100   26.48800    7.14700
      C    C64    87.79900   26.75600    7.73500
      C    C65    88.84800   26.76100    8.84000
      C    C66    88.23000   26.80100   10.22900
      O    O67    87.37200   27.67500   10.47600
      O    O68    88.60000   25.95500   11.07300
      N    N69    85.82000   25.23500    5.70600
      C    C70    84.80400   25.25900    4.67200
      C    C71    83.57600   24.45500    5.12700
      O    O72    82.44700   24.92800    5.01600
      C    C73    85.37900   24.71100    3.35400
      C    C74    84.52500   24.97500    2.11500
      C    C75    83.43600   23.93200    1.95600
      N    N76    83.97500   22.57600    1.85200
      C    C77    83.26500   21.47000    2.06700
      N    N78    81.98500   21.55000    2.41900
      N    N79    83.83900   20.28100    1.94100
      N    N80    83.80300   23.24500    5.63500
      C    C81    82.71900   22.39200    6.12600
      C    C82    81.98400   23.08300    7.26900
      O    O83    80.75200   23.15600    7.27200
      C    C84    83.24600   21.02000    6.62400
      C    C85    83.88300   20.22500    5.47300
      C    C86    82.12600   20.20600    7.26800
      C    C87    84.76100   19.05300    5.93700
      N    N88    82.75400   23.58300    8.23300
      C    C89    82.22500   24.30100    9.38800
      C    C90    81.35600   25.48200    8.96400
      O    O91    80.26700   25.69600    9.50900
      C    C92    83.37900   24.79500   10.26100
      O    O93    82.90700   25.49500   11.39700
      N    N94    81.85400   26.25000    7.99800
      C    C95    81.12100   27.37400    7.44300
      C    C96    79.82800   26.95900    6.76900
      O    O97    78.80400   27.61300    6.94700
      N    N98    79.87400   25.87900    5.99300
      C    C99    78.67700   25.34600    5.33300
      C    C100    77.63800   24.85700    6.33000
      O    O101    76.43500   25.03000    6.12400
      C    C102    79.03200   24.18900    4.39900
      C    C103    79.64700   24.65600    3.10500
      O    O104    79.63500   25.87800    2.86900
      O    O105    80.14200   23.80700    2.33100
      N    N106    78.11000   24.21800    7.39500
      C    C107    77.21900   23.68800    8.41500
      C    C108    76.53700   24.83100    9.13600
      O    O109    75.33100   24.79600    9.34600
      C    C110    77.97400   22.82100    9.41600
      C    C111    78.12200   21.33000    9.11000
      C    C112    79.22700   20.74500    9.95400
      C    C113    76.81200   20.58900    9.35700
      N    N114    77.31100   25.84600    9.50100
      C    C115    76.76600   26.97200   10.24000
      C    C116    75.73200   27.68700    9.38800
      O    O117    74.72900   28.17200    9.89600
      C    C118    77.87500   27.93100   10.68300
      C    C119    78.74700   27.39000   11.80600
      C    C120    79.88700   28.35100   12.12600
      C    C121    80.76200   27.82100   13.24800
      N    N122    82.04900   28.59500   13.35200
      N    N123    75.98800   27.72200    8.08500
      C    C124    75.08100   28.32100    7.11600
      C    C125    73.76200   27.55300    7.04200
      O    O126    72.69200   28.15000    7.07700
      C    C127    75.73500   28.37600    5.72000
      O    O128    76.80900   29.32300    5.73300
      C    C129    74.73600   28.77000    4.66300
      N    N130    73.84900   26.22800    6.94400
      C    C131    72.67100   25.37400    6.85700
      C    C132    71.85600   25.45700    8.13700
      O    O133    70.63600   25.44200    8.11200
      C    C134    73.09100   23.92500    6.61900
      C    C135    73.64100   23.66600    5.23700
      C    C136    72.61000   23.92700    4.16400
      O    O137    71.51300   23.37300    4.20000
      N    N138    72.95300   24.77900    3.20400
      N    N139    72.56400   25.53100    9.25500
      C    C140    71.96500   25.63200   10.56900
      C    C141    71.27300   26.98700   10.73000
      O    O142    70.22100   27.07800   11.34700
      C    C143    73.04600   25.44300   11.65100
      C    C144    73.45400   23.96300   11.73000
      C    C145    72.57400   25.98000   12.99400
      C    C146    74.60500   23.68100   12.67100
      N    N147    71.87600   28.03800   10.17700
      C    C148    71.25600   29.35700   10.17200
      C    C149    69.97500   29.33100    9.36000
      O    O150    69.01800   30.03900    9.66800
      C    C151    72.19700   30.40300    9.58000
      C    C152    73.14200   30.97400   10.60400
      O    O153    72.97400   30.65500   11.80200
      O    O154    74.04900   31.74000   10.20900
      N    N155    69.96700   28.52000    8.31000
      C    C156    68.78200   28.40400    7.47700
      C    C157    67.65000   27.74000    8.24900
      O    O158    66.51100   28.20100    8.19800
      C    C159    69.08800   27.64600    6.19000
      C    C160    69.94900   28.43000    5.21400
      C    C161    70.12700   27.70100    3.90800
      O    O162    69.40200   26.74900    3.61600
      N    N163    71.09000   28.14200    3.10800
      N    N164    67.96500   26.66600    8.97300
      C    C165    66.94800   25.97700    9.75200
      C    C166    66.39000   26.90800   10.82500
      O    O167    65.18300   27.01400   10.96300
      C    C168    67.46300   24.67600   10.41200
      C    C169    66.34100   24.00500   11.19400
      C    C170    68.01800   23.71300    9.36700
      N    N171    67.27500   27.57800   11.56700
      C    C172    66.88200   28.51800   12.62000
      C    C173    66.00300   29.64700   12.08000
      O    O174    65.09600   30.13000   12.76000
      C    C175    68.12000   29.11800   13.30400
      C    C176    68.92200   28.13100   14.13800
      C    C177    70.23500   28.70900   14.67100
      O    O178    70.58000   29.86500   14.32100
      O    O179    70.93000   27.99200   15.43400
      N    N180    66.28700   30.07300   10.85700
      C    C181    65.54100   31.15600   10.23900
      C    C182    64.14800   30.68100    9.82200
      O    O183    63.15100   31.36700   10.06000
      C    C184    66.30900   31.70900    9.03700
      O    O185    65.48300   32.54300    8.24500
      N    N186    64.09100   29.50000    9.21000
      C    C187    62.82900   28.89800    8.79000
      C    C188    61.93700   28.60600    9.98600
      O    O189    60.75000   28.90600    9.96900
      C    C190    63.05800   27.58700    8.02400
      O    O191    63.78800   27.86000    6.82100
      C    C192    61.73000   26.93500    7.67200
      N    N193    62.52200   28.01400   11.02000
      C    C194    61.80200   27.69400   12.23800
      C    C195    61.32500   28.95800   12.94700
      O    O196    60.21400   29.00800   13.45900
      C    C197    62.68400   26.87400   13.16100
      N    N198    62.18300   29.97000   12.98600
      C    C199    61.86200   31.23300   13.62600
      C    C200    60.67200   31.93000   12.99500
      O    O201    59.87900   32.57100   13.68900
      N    N202    60.54300   31.79600   11.67700
      C    C203    59.42100   32.37100   10.95300
      C    C204    58.11200   31.65900   11.31600
      O    O205    57.02800   32.08400   10.91000
      C    C206    59.66700   32.30300    9.44400
      O    O207    59.40500   31.00600    8.93600
      N    N208    58.18800   30.53800   12.02200
      C    C209    57.01400   29.81100   12.52100
      C    C210    56.67700   29.95700   14.00900
      O    O211    55.73000   29.40300   14.47100
      C    C212    57.11700   28.33100   12.18000
      C    C213    56.79500   27.78400   10.79600
      C    C214    56.73700   28.78600    9.72700
      C    C215    57.62000   26.60200   10.39000
      N    N216    57.48300   30.69500   14.74400
      C    C217    57.29900   30.91500   16.18300
      C    C218    55.88800   31.34600   16.59800
      O    O219    55.36400   30.87700   17.55400
      C    C220    58.34600   31.90000   16.73200
      C    C221    58.38400   31.99400   18.25500
      C    C222    59.40800   32.96600   18.78400
      O    O223    59.52500   34.05800   18.29600
      N    N224    60.15300   32.55200   19.78600
      N    N225    55.28000   32.22500   15.82800
      C    C226    53.87600   32.52400   15.95800
      C    C227    52.80300   31.44000   15.99000
      O    O228    51.89900   31.49600   16.80000
      N    N229    52.88800   30.46500   15.11300
      C    C230    51.70600   29.87700   14.55900
      C    C231    51.40300   28.46600   14.97400
      O    O232    50.54300   27.83900   14.41300
      C    C233    51.81300   29.90900   13.08200
      C    C234    52.26500   31.20400   12.54500
      C    C235    53.03300   31.01500   11.32000
      O    O236    54.09600   31.52700   11.19900
      N    N237    52.51800   30.24300   10.41200
      N    N238    52.11600   27.97000   15.96300
      C    C239    51.83900   26.67100   16.49600
      C    C240    50.55500   26.61900   17.28000
      O    O241    50.30100   27.42600   18.09800
      C    C242    53.00600   26.17800   17.34300
      C    C243    54.30900   26.26500   16.69100
      C    C244    55.36000   26.96200   17.11000
      C    C245    54.70200   25.64000   15.49000
      N    N246    56.38700   26.81500   16.27600
      C    C247    56.01100   26.00600   15.25300
      C    C248    54.07400   24.80000   14.59100
      C    C249    56.70500   25.57000   14.16200
      C    C250    54.76400   24.37100   13.53000
      C    C251    56.06400   24.74800   13.31900
      N    N252    49.74300   25.63400   17.00400
      C    C253    48.53100   25.44600   17.74100
      C    C254    48.26000   23.98300   17.84200
      O    O255    48.72600   23.21200   17.04300
      C    C256    47.34700   26.15600   17.07200
      C    C257    47.49600   27.63700   16.82100
      C    C258    47.45300   28.41600   18.07000
      N    N259    47.35900   29.83300   17.84400
      C    C260    48.37400   30.64500   17.65900
      N    N261    48.17000   31.90300   17.45700
      N    N262    49.58900   30.21100   17.65900
      N    N263    47.50000   23.62500   18.85600
      C    C264    47.13800   22.24800   19.12200
      C    C265    48.27700   21.42700   19.69400
      O    O266    49.34300   21.95600   20.00900
      N    N267    48.04300   20.12700   19.83100
      C    C268    49.05000   19.21400   20.35700
      C    C269    50.21900   19.04900   19.38300
      O    O270    51.36000   18.92300   19.80100
      C    C271    48.42600   17.86800   20.67300
      N    N272    49.92200   19.05100   18.08800
      C    C273    50.95100   18.93300   17.06100
      C    C274    51.85300   20.15400   17.04900
      O    O275    53.03000   20.06800   16.68800
      C    C276    50.32400   18.75300   15.70200
      N    N277    51.29000   21.29800   17.41500
      C    C278    52.06500   22.51800   17.47000
      C    C279    53.02500   22.43400   18.63200
      O    O280    54.17700   22.82800   18.51600
      N    N281    52.56800   21.90500   19.74800
      C    C282    53.39300   21.72600   20.92900
      C    C283    54.58200   20.84700   20.61900
      O    O284    55.66900   21.13900   21.00900
      C    C285    52.62800   21.16700   22.16300
      O    O286    51.49000   21.96500   22.42900
      C    C287    53.45600   21.21600   23.33700
      N    N288    54.31300   19.81800   19.84800
      C    C289    55.28300   18.89000   19.34800
      C    C290    56.31400   19.52800   18.45000
      O    O291    57.44400   19.26000   18.56600
      C    C292    54.59800   17.76600   18.64500
      N    N293    55.87800   20.41300   17.58400
      C    C294    56.76100   21.13400   16.72400
      C    C295    57.68300   22.13400   17.40200
      O    O296    58.81900   22.21900   17.06200
      C    C297    56.02000   21.73400   15.66200
      N    N298    57.14900   22.88900   18.34400
      C    C299    57.90200   23.72900   19.26200
      C    C300    58.94400   23.00300   20.06400
      O    O301    60.01000   23.46400   20.20200
      C    C302    56.97600   24.40800   20.24800
      C    C303    56.59300   25.78600   19.91100
      C    C304    55.75000   26.44000   20.98600
      O    O305    54.71100   25.95200   21.32800
      N    N306    56.22800   27.52900   21.52400
      N    N307    58.59500   21.87300   20.60700
      C    C308    59.55700   21.05700   21.24600
      C    C309    60.62600   20.59900   20.24500
      O    O310    61.73500   20.60100   20.57100
      C    C311    58.92600   19.93500   21.91600
      N    N312    60.24300   20.24100   19.02900
      C    C313    61.17500   19.84100   18.00400
      C    C314    62.20000   20.91100   17.64300
      O    O315    63.35100   20.63800   17.56800
      C    C316    60.49800   19.32200   16.79600
      N    N317    61.73200   22.13400   17.48000
      C    C318    62.55400   23.31200   17.48800
      C    C319    63.60700   23.48900   18.56100
      O    O320    64.73200   23.70400   18.27000
      C    C321    61.77800   24.57600   17.39600
      C    C322    62.71000   25.71300   17.39600
      C    C323    60.96100   24.59500   16.21800
      N    N324    63.18800   23.44200   19.80200
      C    C325    64.06700   23.53500   20.95700
      C    C326    65.10000   22.40600   20.97200
      O    O327    66.26500   22.62200   21.30900
      C    C328    63.27100   23.51900   22.27600
      C    C329    64.21900   23.65500   23.46400
      C    C330    62.23400   24.63800   22.28200
      N    N331    64.68100   21.19800   20.61200
      C    C332    65.62800   20.09800   20.54900
      C    C333    66.67800   20.35400   19.45800
      O    O334    67.86400   20.11600   19.66200
      C    C335    64.91900   18.76800   20.31400
      C    C336    65.87900   17.58300   20.26700
      C    C337    65.18200   16.27600   19.92800
      N    N338    66.14200   15.21200   19.64500
      C    C339    65.82700   14.02200   19.14700
      N    N340    64.56300   13.72300   18.87500
      N    N341    66.78200   13.13000   18.91900
      N    N342    66.23600   20.84100   18.30400
      C    C343    67.16300   21.14200   17.22400
      C    C344    68.13500   22.24500   17.62100
      O    O345    69.32400   22.16500   17.32900
      C    C346    66.44100   21.57200   15.95100
      C    C347    67.32200   22.33600   15.00900
      C    C348    68.21900   21.66600   14.18600
      C    C349    67.28700   23.71900   14.97100
      C    C350    69.05300   22.36600   13.32500
      C    C351    68.11900   24.42200   14.11900
      C    C352    69.00400   23.74200   13.29500
      N    N353    67.62300   23.27900   18.27800
      C    C354    68.45100   24.41100   18.66200
      C    C355    69.54900   23.98800   19.63200
      O    O356    70.67200   24.46800   19.55200
      C    C357    67.60300   25.52500   19.27400
      C    C358    68.35800   26.83100   19.41000
      C    C359    68.82800   27.36000   18.06300
      O    O360    68.01600   27.69600   17.19700
      N    N361    70.14300   27.43400   17.88000
      N    N362    69.21400   23.08400   20.54400
      C    C363    70.17900   22.56600   21.50800
      C    C364    71.24200   21.70000   20.82000
      O    O365    72.42700   21.80400   21.12400
      C    C366    69.45900   21.79000   22.62200
      C    C367    68.59500   22.68300   23.52200
      C    C368    67.62200   21.90900   24.41300
      O    O369    67.07800   22.51500   25.36800
      O    O370    67.39400   20.70500   24.15900
      N    N371    70.81200   20.85800   19.88800
      C    C372    71.73100   20.03300   19.10000
      C    C373    72.66600   20.87700   18.21300
      O    O374    73.86600   20.60600   18.13200
      C    C375    70.95000   19.04400   18.25500
      N    N376    72.10300   21.89700   17.56800
      C    C377    72.84300   22.79600   16.69100
      C    C378    73.80700   23.70400   17.44400
      O    O379    74.85100   24.06300   16.91300
      C    C380    71.89100   23.63400   15.86700
      N    N381    73.45000   24.10000   18.66200
      C    C382    74.35100   24.90600   19.47600
      C    C383    75.52200   24.05500   19.94600
      O    O384    76.65100   24.54300   20.05600
      C    C385    73.63300   25.53900   20.67000
      C    C386    72.66400   26.63400   20.25900
      O    O387    72.64400   27.06200   19.10800
      N    N388    71.85300   27.09500   21.20800
      N    N389    75.26100   22.77700   20.21000
      C    C390    76.33900   21.87300   20.59500
      C    C391    77.28200   21.59500   19.41500
      O    O392    78.49300   21.54600   19.58700
      C    C393    75.79400   20.57200   21.18500
      C    C394    75.19200   20.72400   22.57800
      C    C395    75.08300   19.37900   23.28300
      C    C396    74.56400   19.53400   24.71500
      N    N397    74.87500   18.33700   25.57100
      N    N398    76.71100   21.41800   18.22700
      C    C399    77.48400   21.23500   17.01000
      C    C400    78.36900   22.45200   16.75400
      O    O401    79.56000   22.31000   16.52700
      C    C402    76.56400   20.96800   15.81000
      C    C403    77.30200   20.61200   14.51400
      C    C404    78.07100   19.30100   14.61800
      O    O405    77.52400   18.29100   15.05900
      N    N406    79.34100   19.30800   14.19400
      N    N407    77.78600   23.64400   16.80700
      C    C408    78.53900   24.88000   16.58900
      C    C409    79.70300   25.02300   17.56500
      O    O410    80.82200   25.32600   17.15500
      C    C411    77.62000   26.10600   16.67100
      C    C412    76.80000   26.34600   15.40300
      C    C413    75.45800   26.99400   15.70600
      C    C414    75.61000   28.43700   16.13100
      N    N415    74.27600   29.09400   16.28800
      N    N416    79.42900   24.78600   18.82900
      C    C417    80.41400   24.79700   19.86900
      C    C418    81.54300   23.85700   19.58600
      O    O419    82.66500   24.17400   19.72000
      C    C420    79.77400   24.48500   21.19900
      C    C421    80.64800   24.56900   22.36500
      C    C422    79.87800   24.33100   23.64600
      O    O423    78.69000   24.53700   23.72000
      N    N424    80.56300   23.88200   24.64400
      N    N425    81.19200   22.69900   19.12900
      C    C426    82.15800   21.67100   18.78400
      C    C427    83.03200   22.11600   17.61300
      O    O428    84.25800   22.00200   17.66700
      C    C429    81.44600   20.37100   18.43900
      C    C430    82.39000   19.22800   18.13400
      C    C431    81.68800   18.05600   17.49300
      O    O432    80.70700   18.27700   16.73600
      O    O433    82.12900   16.91300   17.73500
      N    N434    82.39900   22.62500   16.55800
      C    C435    83.13500   23.13000   15.40200
      C    C436    84.17100   24.18000   15.81800
      O    O437    85.28800   24.17900   15.31700
      C    C438    82.18500   23.72300   14.35300
      C    C439    81.20000   22.78600   13.64800
      C    C440    80.13100   23.58100   12.87100
      C    C441    81.93200   21.81100   12.72900
      N    N442    83.79700   25.07600   16.72900
      C    C443    84.71000   26.12700   17.17100
      C    C444    85.88500   25.56400   17.97500
      O    O445    87.01500   26.01600   17.81100
      C    C446    83.98300   27.19100   17.99000
      C    C447    82.93700   27.94000   17.18400
      O    O448    83.08600   28.04100   15.94500
      O    O449    81.96400   28.42900   17.80000
      N    N450    85.61100   24.59500   18.84700
      C    C451    86.66700   23.96300   19.63600
      C    C452    87.65900   23.25300   18.71700
      O    O453    88.87300   23.32300   18.91800
      C    C454    86.08900   22.99200   20.67800
      C    C455    85.42100   23.68600   21.88000
      C    C456    84.80300   22.71700   22.88800
      O    O457    84.89300   21.48800   22.67300
      O    O458    84.22300   23.18800   23.89800
      N    N459    87.13600   22.58500   17.69600
      C    C460    87.97600   21.87000   16.74800
      C    C461    88.83400   22.82500   15.92200
      O    O462    90.00700   22.56900   15.69900
      C    C463    87.14100   20.97000   15.81500
      C    C464    86.64900   19.73800   16.57800
      C    C465    87.95500   20.55300   14.60100
      C    C466    85.52000   18.99100   15.89000
      N    N467    88.24100   23.91900   15.46600
      C    C468    88.96300   24.90300   14.67300
      C    C469    90.10500   25.51800   15.47500
      O    O470    91.18100   25.75700   14.94800
      C    C471    88.01400   26.00700   14.20500
      O    O472    87.16100   25.53400   13.17900
      N    N473    89.84800   25.78400   16.74900
      C    C474    90.84300   26.35800   17.63400
      C    C475    91.99600   25.38000   17.80800
      O    O476    93.16100   25.75600   17.68500
      C    C477    90.22700   26.69800   19.00100
      O    O478    89.24700   27.73000   18.83200
      C    C479    91.30000   27.17100   19.97900
      N    N480    91.66100   24.12300   18.08600
      C    C481    92.65400   23.06300   18.18600
      C    C482    93.55100   22.99700   16.95900
      O    O483    94.76800   22.89500   17.07800
      C    C484    91.97600   21.71100   18.37800
      C    C485    91.23300   21.60700   19.69500
      O    O486    90.31500   20.79400   19.83500
      N    N487    91.62600   22.41800   20.66900
      N    N488    92.93400   23.04400   15.78300
      C    C489    93.65000   22.97000   14.51800
      C    C490    94.58000   24.16700   14.32000
      O    O491    95.73100   24.00500   13.90500
      C    C492    92.67400   22.87900   13.32700
      C    C493    92.02700   21.49300   13.27900
      C    C494    93.39600   23.17500   12.02200
      C    C495    90.75000   21.44900   12.47400
      N    N496    94.07400   25.36600   14.61000
      C    C497    94.88500   26.57300   14.51200
      C    C498    96.06700   26.49900   15.47300
      O    O499    97.19200   26.81500   15.10600
      C    C500    94.05100   27.82200   14.79800
      C    C501    93.12300   28.22900   13.65900
      C    C502    92.50300   29.60700   13.90000
      N    N503    92.02400   29.77000   15.27200
      C    C504    90.76600   29.56800   15.66100
      N    N505    90.42700   29.74200   16.93400
      N    N506    89.84400   29.19500   14.77800
      N    N507    95.80800   26.07300   16.70300
      C    C508    96.86100   26.00400   17.70500
      C    C509    97.89300   24.91900   17.39500
      O    O510    99.07100   25.07700   17.71300
      C    C511    96.27300   25.84700   19.10900
      C    C512    95.47200   27.06800   19.56000
      C    C513    95.13600   27.03900   21.03800
      O    O514    94.72000   26.01100   21.57100
      N    N515    95.31700   28.17100   21.71000
      N    N516    97.46200   23.82900   16.76100
      C    C517    98.40800   22.80000   16.33600
      C    C518    99.23100   23.29500   15.15200
      O    O519   100.42400   23.00500   15.05000
      C    C520    97.69600   21.50400   15.98300
      N    N521    98.58300   24.03400   14.25800
      C    C522    99.26800   24.65400   13.14200
      C    C523   100.43400   25.49500   13.62600
      O    O524   101.55500   25.33000   13.14800
      N    N525   100.17600   26.38800   14.58200
      C    C526   101.23100   27.21200   15.17700
      C    C527   102.40600   26.36500   15.65900
      O    O528   103.56500   26.76300   15.54100
      C    C529   100.70300   28.05800   16.34900
      C    C530   101.86500   28.63400   17.13500
      C    C531    99.80200   29.16600   15.82400
      N    N532   102.09700   25.28000   16.34200
      C    C533   103.02800   24.32800   16.90000
      C    C534   103.89100   23.66300   15.88300
      O    O535   104.98800   23.35800   16.15800
      C    C536   102.24200   23.21300   17.50300
      C    C537   102.49900   22.81600   18.87600
      C    C538   101.46200   21.83000   19.31100
      O    O539   100.76300   21.23700   18.48500
      N    N540   101.32800   21.65400   20.59400
      N    N541   103.31200   23.39300   14.71800
      C    C542   103.88700   22.60600   13.62700
      C    C543   104.68900   23.53000   12.74300
      O    O544   105.69600   23.14900   12.20300
      C    C545   102.76700   22.02700   12.73400
      C    C546   102.53800   20.53700   12.84400
      C    C547   102.99700   19.67700   11.86900
      C    C548   101.85700   20.00400   13.92100
      C    C549   102.80800   18.34800   11.97300
      C    C550   101.66100   18.67900   14.04100
      C    C551   102.13800   17.85100   13.07300
      O    O552   101.95500   16.53800   13.18400
      N    N553   104.20000   24.73800   12.58300
      C    C554   104.98200   25.78300   11.93400
      C    C555   106.36000   25.92000   12.57500
      O    O556   107.31600   25.96100   11.86100
      C    C557   104.24200   27.12200   11.98900
      O    O558   105.00400   28.15000   11.38000
