# CIF file generated by openbabel 2.3.2, see http://openbabel.sf.net
data_I
_chemical_name_common '../proteins/pdb/3GW2.pdb'
_cell_length_a 91.09
_cell_length_b 91.09
_cell_length_c 62.43
_cell_angle_alpha 90
_cell_angle_beta 90
_cell_angle_gamma 120
_space_group_name_H-M_alt 'P 64 2 2'
_space_group_name_Hall 'P 64 2c (0 0 -1)'
loop_
    _symmetry_equiv_pos_as_xyz
    'x,y,z'
    '-y,x-y,1/3+z'
    '-x+y,-x,2/3+z'
    '-x,-y,z'
    'y,-x+y,1/3+z'
    'x-y,x,2/3+z'
    'y,x,1/3-z'
    'x-y,-y,-z'
    '-x,-x+y,2/3-z'
    '-y,-x,1/3-z'
    '-x+y,y,-z'
    'x,x-y,2/3-z'
loop_
    _atom_site_type_symbol
    _atom_site_label
    _atom_site_Cartn_x
    _atom_site_Cartn_y
    _atom_site_Cartn_z
      N    N1     0.88800   36.53900   24.72600
      C    C2     1.93100   37.06200   25.65500
      C    C3     3.34400   36.70500   25.17200
      O    O4     3.51700   35.80200   24.34700
      C    C5     1.68600   36.54500   27.08300
      C    C6     2.24600   35.14500   27.37200
      C    C7     1.78700   34.61900   28.72400
      N    N8     0.39500   34.17000   28.68700
      C    C9     0.01100   32.92600   28.40800
      N    N10     0.91300   31.98700   28.14100
      N    N11    -1.28000   32.61800   28.39900
      N    N12     4.34200   37.41500   25.69900
      C    C13     5.74900   37.21600   25.33200
      C    C14     6.43900   36.17400   26.20600
      O    O15     7.31700   35.45400   25.73100
      C    C16     6.52300   38.53300   25.43400
      C    C17     6.19700   39.57600   24.36600
      C    C18     5.83400   40.94000   24.98800
      C    C19     6.72300   41.29100   26.19000
      N    N20     6.38100   42.57800   26.85000
      N    N21     6.05900   36.11800   27.48300
      C    C22     6.66300   35.19100   28.45300
      C    C23     6.17800   33.74400   28.23300
      O    O24     5.14700   33.53400   27.57900
      C    C25     6.36800   35.65600   29.88000
      N    N26     6.89100   32.74500   28.76500
      C    C27     8.08300   32.92000   29.60900
      C    C28     9.39100   32.90400   28.80900
      O    O29    10.40300   32.35500   29.25200
      C    C30     8.10800   31.86500   30.72000
      N    N31     9.35300   33.51700   27.62800
      C    C32    10.53800   33.74400   26.81300
      C    C33    11.44600   34.75900   27.50300
      O    O34    12.67000   34.63900   27.45200
      C    C35    10.13000   34.24900   25.42500
      C    C36    11.17400   34.47300   24.32600
      C    C37    11.75300   33.15500   23.85300
      C    C38    10.54100   35.21800   23.15800
      N    N39    10.83000   35.74000   28.16800
      C    C40    11.56400   36.82300   28.82700
      C    C41    12.28700   36.38600   30.09800
      O    O42    13.37300   36.88500   30.40800
      C    C43    10.65300   38.03200   29.08300
      C    C44    10.09300   38.71800   27.83400
      C    C45     9.37600   40.00900   28.20800
      C    C46    11.18000   38.98300   26.78500
      N    N47    11.70400   35.43500   30.81900
      C    C48    12.38900   34.83000   31.96400
      C    C49    13.62800   34.04200   31.55100
      O    O50    14.60800   33.99400   32.30300
      C    C51    11.43000   33.96100   32.77700
      C    C52    10.43800   34.78800   33.57100
      O    O53    10.88400   35.70200   34.29800
      O    O54     9.21400   34.53100   33.47200
      N    N55    13.59900   33.43800   30.36000
      C    C56    14.79400   32.76200   29.83200
      C    C57    15.81700   33.75100   29.26300
      O    O58    17.01900   33.51600   29.36500
      C    C59    14.43600   31.67500   28.80200
      C    C60    15.65900   30.93800   28.14900
      C    C61    16.52000   30.11800   29.11200
      O    O62    16.10700   29.77900   30.21500
      N    N63    17.72700   29.79200   28.68000
      N    N64    15.34900   34.85100   28.67100
      C    C65    16.26200   35.90900   28.24300
      C    C66    16.96100   36.43800   29.48300
      O    O67    18.15700   36.72200   29.44900
      C    C68    15.54700   37.07500   27.49400
      C    C69    16.49800   38.25200   27.30100
      C    C70    15.00000   36.62400   26.14600
      N    N71    16.20400   36.55800   30.57900
      C    C72    16.76200   36.94400   31.87800
      C    C73    17.87200   35.97000   32.30400
      O    O74    18.92900   36.40000   32.79400
      C    C75    15.66300   37.03400   32.93900
      N    N76    17.64800   34.67200   32.08100
      C    C77    18.67900   33.65100   32.35400
      C    C78    19.88800   33.81700   31.43300
      O    O79    21.02000   33.66800   31.87100
      C    C80    18.09900   32.23100   32.27600
      C    C81    17.03200   31.96100   33.34000
      C    C82    16.50800   30.51900   33.33100
      N    N83    15.16100   30.44200   33.90600
      C    C84    14.04700   30.26200   33.19900
      N    N85    14.11200   30.12000   31.87900
      N    N86    12.86000   30.21400   33.80700
      N    N87    19.64800   34.17100   30.16700
      C    C88    20.74800   34.50800   29.25100
      C    C89    21.56200   35.68100   29.80000
      O    O90    22.79000   35.60200   29.89300
      C    C91    20.25100   34.83000   27.81400
      C    C92    21.40800   35.25400   26.92900
      C    C93    19.52800   33.64100   27.21200
      N    N94    20.87100   36.76000   30.17200
      C    C95    21.51200   37.91700   30.77300
      C    C96    22.28900   37.59100   32.03800
      O    O97    23.41700   38.05300   32.21600
      N    N98    21.67800   36.80000   32.91700
      C    C99    22.33600   36.33600   34.14000
      C    C100    23.63100   35.60100   33.81200
      O    O101    24.65600   35.86400   34.42900
      C    C102    21.39300   35.44000   34.95200
      C    C103    21.94500   34.98600   36.31300
      C    C104    20.80300   34.52800   37.23900
      C    C105    21.28300   34.33300   38.68300
      N    N106    22.52700   33.49100   38.72600
      N    N107    23.59200   34.71000   32.81900
      C    C108    24.79500   33.98400   32.38300
      C    C109    25.89300   34.92400   31.90300
      O    O110    27.07500   34.66600   32.13600
      C    C111    24.45500   32.98100   31.28700
      N    N112    25.49600   36.01000   31.23600
      C    C113    26.44000   36.95600   30.65700
      C    C114    26.96100   37.95200   31.67700
      O    O115    27.92700   38.66000   31.41600
      C    C116    25.79000   37.71400   29.48200
      C    C117    25.54100   36.98400   28.15600
      C    C118    24.66300   37.82300   27.19000
      C    C119    26.84500   36.58500   27.47500
      N    N120    26.32600   37.99600   32.84300
      C    C121    26.53100   39.08100   33.80700
      C    C122    27.76900   38.92400   34.69200
      O    O123    27.74900   39.32000   35.84500
      C    C124    25.27900   39.25900   34.68000
      N    N125    28.83700   38.35200   34.15000
      C    C126    30.07400   38.17900   34.89100
      C    C127    31.23300   38.26800   33.91100
      O    O128    31.36000   37.43100   33.01400
      C    C129    30.05800   36.83900   35.64100
      C    C130    31.29700   36.62500   36.50100
      O    O131    32.40600   36.48600   35.98800
      N    N132    31.10800   36.58600   37.81100
      N    N133    32.07000   39.28700   34.07900
      C    C134    33.11800   39.58800   33.10300
      C    C135    34.13700   38.48700   32.93000
      O    O136    34.58300   38.18700   31.81100
      N    N137    34.49700   37.87100   34.04700
      C    C138    35.45500   36.78300   34.05100
      C    C139    34.86300   35.50600   33.47000
      O    O140    35.54000   34.77100   32.76100
      C    C141    35.99000   36.55700   35.46800
      C    C142    37.34100   35.91300   35.48000
      C    C143    37.69400   35.40200   36.84800
      N    N144    38.93000   34.63500   36.79000
      C    C145    39.44800   33.96300   37.81000
      N    N146    38.83000   33.94500   38.98600
      N    N147    40.58500   33.29900   37.64700
      N    N148    33.58600   35.25800   33.73900
      C    C149    32.85700   34.15400   33.09700
      C    C150    32.82400   34.25400   31.55700
      O    O151    32.81200   33.23100   30.84500
      C    C152    31.44800   34.08200   33.69600
      C    C153    30.48400   33.12500   33.03500
      C    C154    29.44900   32.63600   34.03300
      N    N155    28.43200   33.63200   34.35100
      C    C156    28.10100   34.02600   35.58000
      N    N157    28.70100   33.51700   36.64400
      N    N158    27.14700   34.93300   35.74900
      N    N159    32.83600   35.47900   31.03200
      C    C160    32.85300   35.69900   29.57900
      C    C161    34.16000   35.24400   28.88800
      O    O162    34.18100   34.97000   27.67800
      C    C163    32.58200   37.17100   29.28000
      C    C164    31.12100   37.66000   29.17000
      C    C165    30.15400   36.79700   29.94200
      C    C166    31.03400   39.08600   29.62800
      N    N167    35.24400   35.18600   29.65500
      C    C168    36.51400   34.63100   29.17100
      C    C169    36.33500   33.19800   28.69500
      O    O170    36.88800   32.80800   27.67400
      C    C171    37.58900   34.69100   30.25700
      C    C172    37.94000   36.11000   30.67100
      C    C173    38.99100   36.17000   31.75800
      O    O174    39.09800   37.16800   32.47300
      N    N175    39.78000   35.11400   31.88200
      N    N176    35.53000   32.43200   29.42100
      C    C177    35.18900   31.06800   29.01800
      C    C178    34.61400   31.03100   27.61400
      O    O179    34.98500   30.18100   26.80700
      C    C180    34.20700   30.39800   30.01000
      C    C181    34.89200   30.18100   31.37600
      C    C182    33.70600   29.06700   29.43400
      C    C183    33.95000   29.76400   32.52200
      N    N184    33.72400   31.97300   27.31400
      C    C185    33.09300   32.03600   25.99100
      C    C186    34.10100   32.31600   24.89000
      O    O187    34.07800   31.66100   23.84700
      C    C188    31.93100   33.04700   25.98500
      C    C189    30.69500   32.63400   26.78500
      C    C190    29.63600   33.72900   26.73000
      C    C191    30.11300   31.31800   26.26700
      N    N192    35.01600   33.25600   25.13000
      C    C193    36.10400   33.52700   24.17700
      C    C194    36.98300   32.31400   23.97000
      O    O195    37.41500   32.03300   22.85100
      C    C196    36.95800   34.71200   24.63000
      C    C197    36.64200   35.97700   23.86100
      O    O198    36.69800   35.96100   22.60900
      O    O199    36.33500   37.00000   24.49800
      N    N200    37.21900   31.57600   25.05100
      C    C201    38.04400   30.37900   24.99900
      C    C202    37.40300   29.25700   24.18300
      O    O203    38.08700   28.56200   23.42700
      C    C204    38.36300   29.88900   26.41200
      C    C205    39.35400   28.74100   26.50200
      C    C206    40.77500   29.19000   26.13100
      C    C207    39.31100   28.14500   27.89100
      N    N208    36.09400   29.08500   24.33900
      C    C209    35.37800   28.02200   23.64100
      C    C210    35.04100   28.39900   22.19800
      O    O211    34.58700   27.56300   21.42800
      C    C212    34.09700   27.66200   24.40200
      C    C213    34.24100   27.07900   25.81400
      C    C214    32.87800   26.84700   26.38700
      C    C215    35.04500   25.78900   25.79400
      N    N216    35.26700   29.66100   21.85000
      C    C217    34.83800   30.21900   20.57600
      C    C218    36.02300   30.40300   19.67500
      O    O219    36.72300   31.40100   19.79600
      C    C220    34.13100   31.57800   20.79600
      N    N221    36.28300   29.43400   18.79800
      C    C222    35.54800   28.16800   18.79500
      C    C223    36.45500   26.93300   19.05800
      O    O224    37.65400   26.90000   18.72100
      C    C225    34.70400   28.03500   17.51900
      C    C226    33.71900   26.85400   17.48100
      C    C227    32.39800   27.09500   18.20300
      O    O228    31.79300   28.17500   18.10900
      N    N229    31.92100   26.06600   18.90000
      N    N230    35.84600   25.92200   19.66700
      C    C231    36.47400   24.64600   19.91700
      C    C232    36.12600   24.23800   21.33000
      O    O233    36.48700   24.92800   22.28500
      N    N234    35.40900   23.12500   21.44800
      C    C235    35.05500   22.53900   22.73300
      C    C236    36.29200   22.23700   23.59200
      O    O237    37.33900   21.86600   23.06900
      C    C238    34.20700   21.29100   22.48500
      C    C239    34.41100   20.15000   23.44300
      C    C240    33.79500   18.86100   22.94500
      O    O241    34.55000   17.95100   22.55200
      O    O242    32.55900   18.74700   22.96100
      N    N243    36.18200   22.43100   24.90700
      C    C244    37.29900   22.10600   25.80700
      C    C245    36.80900   21.43100   27.08400
      O    O246    35.65200   21.59900   27.47400
      C    C247    38.16800   23.35400   26.09700
      C    C248    38.54900   24.14700   24.80600
      C    C249    39.99800   24.65700   24.70700
      N    N250    41.00400   23.71300   25.19200
      C    C251    42.30200   23.99900   25.33300
      N    N252    42.75900   25.20400   25.02800
      N    N253    43.14800   23.08100   25.78200
      N    N254    37.68500   20.64100   27.70600
      C    C255    37.40100   19.99800   28.99100
      C    C256    37.40700   21.03200   30.11400
      O    O257    38.10200   22.03200   30.02800
      C    C258    38.42600   18.88200   29.28900
      N    N259    36.64100   20.77000   31.17000
      C    C260    36.57600   21.64000   32.35100
      C    C261    37.98300   21.96600   32.89200
      O    O262    38.29100   23.13600   33.19300
      C    C263    35.73200   20.97800   33.48000
      C    C264    35.69700   21.84800   34.73800
      C    C265    34.32300   20.69100   32.98200
      N    N266    38.81300   20.92200   33.02000
      C    C267    40.17800   21.04800   33.54500
      C    C268    40.95100   22.08400   32.73200
      O    O269    41.59700   22.98800   33.28600
      C    C270    40.90100   19.68900   33.47400
      C    C271    41.66100   19.31900   34.73400
      C    C272    42.72800   18.23100   34.50500
      O    O273    42.42300   17.18800   33.86200
      O    O274    43.88200   18.42600   34.97100
      N    N275    40.86500   21.95200   31.40500
      C    C276    41.55500   22.86500   30.48800
      C    C277    41.03000   24.30400   30.59600
      O    O278    41.81400   25.26200   30.59100
      C    C279    41.47300   22.34600   29.03900
      N    N280    39.71100   24.44600   30.70200
      C    C281    39.05000   25.75100   30.83200
      C    C282    39.46300   26.43900   32.14700
      O    O283    39.72400   27.65000   32.18200
      C    C284    37.49700   25.60200   30.78300
      C    C285    37.04200   25.12600   29.39500
      C    C286    36.79100   26.91000   31.13800
      C    C287    35.64900   24.51500   29.37600
      N    N288    39.53100   25.65800   33.21400
      C    C289    39.94700   26.15400   34.52400
      C    C290    41.38500   26.66800   34.46000
      O    O291    41.69200   27.77300   34.91800
      C    C292    39.83600   25.04600   35.54900
      N    N293    42.26000   25.85700   33.87900
      C    C294    43.67300   26.19100   33.73600
      C    C295    43.90000   27.41400   32.83400
      O    O296    44.69000   28.30800   33.17300
      C    C297    44.44000   24.98700   33.19500
      O    O298    44.29800   23.89500   34.12000
      C    C299    45.93600   25.31000   33.03200
      N    N300    43.19600   27.45800   31.70100
      C    C301    43.32400   28.56700   30.76000
      C    C302    42.85700   29.89100   31.35800
      O    O303    43.41800   30.93900   31.05900
      C    C304    42.56000   28.27300   29.45400
      N    N305    41.83300   29.85500   32.19300
      C    C306    41.28200   31.09800   32.73000
      C    C307    41.81300   31.41800   34.12900
      O    O308    41.43600   32.42800   34.71700
      C    C309    39.76200   31.03500   32.81900
      O    O310    39.40600   29.95200   33.68900
      C    C311    39.16500   30.83700   31.43900
      N    N312    42.68800   30.56300   34.65200
      C    C313    43.22100   30.74000   35.99900
      C    C314    42.18300   30.54700   37.10700
      O    O315    42.36600   31.06700   38.19500
      N    N316    41.11300   29.79200   36.83800
      C    C317    40.07300   29.54300   37.84000
      C    C318    40.33700   28.21300   38.51300
      O    O319    40.74200   27.27300   37.85100
      C    C320    38.67000   29.48000   37.21800
      C    C321    38.15100   30.77700   36.61200
     Se   Se322    36.50300   30.37800   35.61800
      C    C323    36.41200   32.03200   34.54400
      N    N324    40.09500   28.12600   39.81900
      C    C325    40.07800   26.81800   40.46200
      C    C326    38.91500   25.99400   39.87300
      O    O327    37.97900   26.56200   39.28600
      C    C328    39.95300   26.95200   41.98000
      C    C329    38.62500   27.56500   42.40500
      O    O330    37.67100   26.84800   42.67300
      N    N331    38.56000   28.89100   42.46300
      N    N332    38.99200   24.67200   40.02600
      C    C333    38.01100   23.74400   39.46900
      C    C334    36.57000   24.00800   39.92900
      O    O335    35.65300   23.88200   39.13600
      C    C336    38.40300   22.29400   39.80100
      C    C337    38.93800   21.31600   38.73600
      C    C338    39.51700   21.97200   37.46100
      C    C339    39.94400   20.30600   39.37800
      N    N340    36.37800   24.37400   41.19900
      C    C341    35.05000   24.71200   41.72000
      C    C342    34.46800   25.97800   41.06400
      O    O343    33.30100   25.98900   40.62300
      C    C344    35.07300   24.84300   43.25100
      O    O345    35.62500   23.64600   43.81400
      C    C346    33.66100   25.06900   43.83000
      N    N347    35.27400   27.03900   41.00200
      C    C348    34.89200   28.29600   40.31400
      C    C349    34.55500   28.05200   38.84500
      O    O350    33.51800   28.49000   38.35900
      C    C351    36.01100   29.35100   40.43900
      O    O352    36.22900   29.64200   41.82800
      C    C353    35.65400   30.64800   39.70600
      N    N354    35.41600   27.33100   38.13700
      C    C355    35.19000   27.03800   36.73000
      C    C356    33.86800   26.28900   36.53600
      O    O357    33.06800   26.63500   35.67000
      C    C358    36.36400   26.20500   36.14700
      N    N359    33.65000   25.26300   37.34500
      C    C360    32.46600   24.43900   37.20500
      C    C361    31.19700   25.22600   37.54400
      O    O362    30.18600   25.09100   36.84900
      C    C363    32.60600   23.16100   38.05200
      O    O364    31.39400   22.42400   38.04300
      N    N365    31.25700   26.06400   38.58600
      C    C366    30.17600   27.00800   38.89800
      C    C367    29.87300   27.96000   37.72800
      O    O368    28.71400   28.15400   37.37900
      C    C369    30.48000   27.81000   40.19400
      N    N370    30.90500   28.54900   37.13500
      C    C371    30.71100   29.46100   36.01800
      C    C372    30.17900   28.73100   34.77400
      O    O373    29.35800   29.28000   34.04300
      C    C374    32.01000   30.18700   35.66300
      C    C375    32.26800   31.39000   36.54100
      O    O376    31.36000   32.15500   36.84600
      N    N377    33.52100   31.57400   36.93800
      N    N378    30.66300   27.50700   34.53500
      C    C379    30.15000   26.69100   33.42400
      C    C380    28.66500   26.32200   33.59200
      O    O381    27.89400   26.37800   32.63600
      C    C382    31.03100   25.45500   33.20700
      C    C383    32.39200   25.79500   32.58500
      C    C384    33.41600   24.69300   32.83500
      C    C385    32.24700   26.08800   31.07500
      N    N386    28.27300   25.96000   34.81200
      C    C387    26.86000   25.78700   35.16400
      C    C388    26.03200   27.04300   34.90500
      O    O389    24.91600   26.95400   34.37600
      C    C390    26.71000   25.38600   36.62900
      C    C391    26.41700   23.92200   36.84400
      C    C392    27.50600   22.99900   36.33800
      O    O393    27.35400   22.36400   35.28700
      N    N394    28.60800   22.90500   37.08400
      N    N395    26.57600   28.20300   35.27000
      C    C396    25.90200   29.47200   35.02600
      C    C397    25.68700   29.70100   33.53500
      O    O398    24.60100   30.10200   33.11900
      C    C399    26.66500   30.63100   35.65400
      N    N400    26.71500   29.43200   32.73100
      C    C401    26.59400   29.50200   31.26600
      C    C402    25.56200   28.52500   30.71000
      O    O403    24.77000   28.87900   29.82600
      C    C404    27.95300   29.31400   30.58900
      C    C405    28.95300   30.44900   30.85100
      C    C406    30.32700   30.04700   30.33600
      C    C407    28.47600   31.75700   30.20900
      N    N408    25.56300   27.30700   31.24200
      C    C409    24.62600   26.25500   30.82600
      C    C410    23.16300   26.61300   31.13600
      O    O411    22.28800   26.40400   30.29700
      C    C412    25.00500   24.94100   31.50100
      C    C413    24.48300   23.66800   30.82800
      C    C414    24.93200   22.47900   31.67100
      C    C415    24.48100   21.13000   31.11500
      N    N416    23.01200   20.90700   31.25100
      N    N417    22.89800   27.16200   32.32300
      C    C418    21.53600   27.57600   32.70100
      C    C419    21.00500   28.68500   31.80100
      O    O420    19.80400   28.82800   31.63500
      C    C421    21.48600   28.05300   34.15300
      O    O422    21.97900   27.05600   35.03200
      N    N423    21.91200   29.47600   31.23400
      C    C424    21.53300   30.52000   30.30200
      C    C425    21.48500   30.03300   28.86500
      O    O426    21.25400   30.82400   27.94900
      N    N427    21.70600   28.73200   28.66400
      C    C428    21.59600   28.12500   27.34700
      C    C429    22.75400   28.43100   26.41600
      O    O430    22.64900   28.21000   25.20200
      N    N431    23.86700   28.89400   26.98100
      C    C432    24.97600   29.43000   26.19500
      C    C433    26.05000   28.38900   25.86800
      O    O434    26.80900   28.55000   24.91000
      C    C435    25.60800   30.63600   26.90300
      C    C436    24.74000   31.88100   27.12700
      C    C437    25.57600   33.00600   27.71100
      C    C438    24.04500   32.34100   25.84600
      N    N439    26.11700   27.33700   26.67800
      C    C440    27.02600   26.22200   26.42900
      C    C441    26.27800   24.88800   26.57000
      O    O442    25.22000   24.82700   27.21100
      C    C443    28.25700   26.23600   27.38100
      C    C444    29.14700   27.46300   27.12400
      C    C445    27.83500   26.15900   28.85700
      N    N446    26.81700   23.83600   25.95500
      C    C447    26.34400   22.47400   26.20000
      C    C448    27.50200   21.63500   26.70100
      O    O449    28.66100   22.01200   26.52200
      C    C450    25.73000   21.85600   24.94500
      C    C451    24.54900   22.65800   24.42000
      C    C452    23.30300   21.83300   24.23500
      O    O453    23.42000   20.59700   24.07700
      O    O454    22.19500   22.42400   24.23800
      N    N455    27.18000   20.51000   27.33500
      C    C456    28.16900   19.66300   27.96900
      C    C457    27.98300   18.21000   27.56700
      O    O458    26.87400   17.77200   27.27200
      C    C459    28.09400   19.80100   29.47900
      N    N460    29.08300   17.47400   27.54000
      C    C461    29.04100   16.02900   27.40100
      C    C462    30.06400   15.41600   28.33600
      O    O463    31.09300   16.02900   28.63900
      C    C464    29.28500   15.59200   25.95300
      C    C465    30.63000   15.98000   25.38900
      C    C466    30.82800   15.45500   23.97300
      N    N467    32.19000   15.76200   23.54600
      C    C468    33.23100   14.93900   23.70200
      N    N469    33.07200   13.73200   24.25400
      N    N470    34.43300   15.32800   23.30000
      N    N471    29.75600   14.21500   28.80600
      C    C472    30.59900   13.47900   29.73600
      C    C473    31.34400   12.39200   28.95500
      O    O474    30.71900   11.59000   28.26000
      C    C475    29.71000   12.85300   30.82000
      C    C476    30.43500   12.10100   31.94500
      C    C477    30.61400   12.96100   33.19000
      N    N478    29.37700   13.64700   33.56800
      C    C479    29.25200   14.44600   34.62600
      N    N480    30.28600   14.66400   35.43400
      N    N481    28.08500   15.03100   34.88100
      N    N482    32.67300   12.39000   29.04600
      C    C483    33.49200   11.34700   28.41800
      C    C484    34.52700   10.82800   29.41000
      O    O485    35.55900   11.46500   29.64400
      C    C486    34.16200   11.85100   27.13300
      C    C487    35.02600   10.81100   26.42700
      C    C488    35.76400   11.36400   25.21300
      O    O489    37.02000   11.33800   25.22200
      O    O490    35.09300   11.81800   24.24900
      N    N491    34.23800    9.66900   29.99600
      C    C492    35.07600    9.09800   31.04800
      C    C493    34.92900    9.90400   32.32000
      O    O494    33.81200   10.19500   32.75700
      N    N495    36.06400   10.28300   32.89600
      C    C496    36.10500   11.09300   34.11600
      C    C497    36.11000   12.60600   33.81000
      O    O498    36.23300   13.44100   34.71700
      C    C499    37.32000   10.68700   34.99800
      O    O500    37.45800   11.59800   36.09700
      C    C501    38.61500   10.66800   34.17700
      N    N502    35.94700   12.94600   32.53000
      C    C503    36.01200   14.33500   32.06100
      C    C504    34.66900   14.81800   31.56300
      O    O505    33.79300   14.01500   31.24000
      C    C506    37.04000   14.47600   30.93900
      C    C507    38.34400   13.78200   31.24700
      C    C508    39.53400   14.46000   30.60400
      N    N509    40.76400   14.07800   31.29700
      C    C510    41.16900   14.61600   32.44800
      N    N511    40.44700   15.57200   33.03700
      N    N512    42.29700   14.20000   33.01500
      N    N513    34.52700   16.14000   31.50100
      C    C514    33.35000   16.78900   30.97600
      C    C515    33.82200   17.83600   29.95700
      O    O516    34.73800   18.62500   30.23300
      C    C517    32.61500   17.46700   32.12600
      C    C518    31.13100   17.20800   32.19400
      C    C519    30.45200   18.04200   33.26500
      O    O520    31.11200   18.72400   34.05800
      N    N521    29.12800   18.00400   33.28700
      N    N522    33.21700   17.83000   28.78000
      C    C523    33.58200   18.75300   27.71100
      C    C524    32.44500   19.73600   27.46100
      O    O525    31.28900   19.34100   27.29900
      C    C526    33.93400   17.99100   26.42300
      C    C527    35.16300   17.11900   26.55700
      C    C528    36.42200   17.59000   26.18200
      C    C529    35.07200   15.82000   27.06900
      C    C530    37.56600   16.78700   26.31300
      C    C531    36.20800   15.01100   27.20600
      C    C532    37.45100   15.50500   26.83200
      O    O533    38.57500   14.71000   26.96700
      N    N534    32.78200   21.01600   27.42800
      C    C535    31.79300   22.07300   27.20400
      C    C536    32.04600   22.74600   25.86900
      O    O537    33.20000   22.88700   25.45400
      C    C538    31.88100   23.13500   28.30400
      C    C539    31.13000   22.79700   29.56500
      C    C540    29.85700   23.31900   29.78800
      C    C541    31.68300   21.95000   30.53000
      C    C542    29.14300   23.02400   30.94500
      C    C543    30.97900   21.64900   31.70800
      C    C544    29.70700   22.19600   31.89900
      O    O545    28.98900   21.93200   33.04000
      N    N546    30.97400   23.15600   25.20700
      C    C547    31.03600   23.86700   23.98000
      C    C548    31.08800   23.97200   24.01700
      C    C549    29.95600   24.96900   23.91200
      O    O550    28.88800   24.80300   24.49400
      C    C551    30.87100   22.87600   22.82000
      C    C552    31.13600   23.13400   22.73600
      C    C553    29.53500   22.13900   22.78700
      C    C554    30.37300   21.83200   22.75400
      C    C555    29.30800   21.49900   21.42500
      C    C556    28.88500   21.97600   22.84500
      N    N557    27.96600   20.94900   21.25700
      N    N558    28.15500   21.10500   21.90800
      C    C559    26.94600   21.58900   20.68400
      C    C560    27.84200   19.82700   22.11900
      N    N561    27.07800   22.83100   20.22500
      N    N562    28.22200   19.18400   23.21800
      N    N563    25.77600   20.98200   20.57100
      N    N564    27.15400   19.17200   21.20000
      N    N565    30.22600   26.00200   23.13400
      C    C566    29.22900   26.99000   22.73800
      C    C567    28.05000   26.26700   22.09700
      O    O568    28.23900   25.43700   21.22000
      C    C569    29.89000   28.04600   21.82800
      C    C570    30.68100   29.00500   22.73700
      C    C571    28.84700   28.77500   20.90900
      C    C572    31.53500   29.98300   22.00400
      N    N573    26.84400   26.56700   22.58700
      C    C574    25.63800   25.78500   22.28800
      C    C575    25.18000   25.80000   20.82600
      O    O576    24.59200   24.81600   20.35300
      C    C577    24.49200   26.19200   23.21800
      N    N578    25.41900   26.90100   20.11300
      C    C579    25.19300   26.92400   18.65600
      C    C580    25.68800   28.19300   17.99400
      O    O581    26.28400   29.05100   18.65300
      N    N582    25.43500   28.31600   16.69000
      C    C583    25.76200   29.53400   15.94900
      C    C584    25.06900   30.78400   16.52200
      O    O585    25.70200   31.84000   16.66100
      C    C586    25.39200   29.38100   14.46200
      C    C587    25.47500   30.69900   13.66300
      C    C588    26.88300   30.89100   12.99200
      O    O589    27.94000   30.68500   13.65900
      O    O590    26.92400   31.25500   11.78100
      N    N591    23.77400   30.66300   16.83600
      C    C592    23.00600   31.78400   17.38700
      C    C593    23.69600   32.33800   18.64400
      O    O594    23.74700   33.55400   18.85100
      C    C595    21.54400   31.38100   17.66300
      C    C596    20.73000   31.14400   16.36500
      O    O597    21.22700   31.43400   15.25100
      O    O598    19.57000   30.66800   16.45000
      N    N599    24.25200   31.44500   19.46100
      C    C600    25.03700   31.85300   20.63500
      C    C601    26.35900   32.54400   20.24300
      O    O602    26.74700   33.53200   20.86900
      C    C603    25.26900   30.67500   21.62200
      C    C604    26.16300   31.10100   22.78300
      C    C605    23.93200   30.16100   22.15400
      N    N606    27.02800   32.03300   19.20600
      C    C607    28.24700   32.66100   18.66700
      C    C608    27.95200   34.04000   18.04600
      O    O609    28.69300   35.00300   18.26400
      C    C610    28.93300   31.74400   17.63500
      N    N611    26.88000   34.13600   17.26800
      C    C612    26.41200   35.44500   16.81600
      C    C613    26.04400   36.35500   18.00300
      O    O614    26.39100   37.53700   18.00900
      C    C615    25.25200   35.31000   15.82000
      C    C616    25.67600   34.61400   14.50600
      C    C617    24.59000   34.66600   13.44200
      N    N618    23.36400   33.97400   13.84300
      C    C619    22.16400   34.54400   13.95400
      N    N620    21.99000   35.83900   13.69200
      N    N621    21.12100   33.80900   14.32200
      N    N622    25.38300   35.79200   19.01400
      C    C623    24.94900   36.58900   20.17600
      C    C624    26.12000   37.21400   20.93500
      O    O625    26.09600   38.39800   21.28200
      C    C626    24.07200   35.76600   21.12700
      C    C627    23.75300   36.41000   22.47600
      C    C628    22.78600   37.57700   22.28900
      C    C629    23.18600   35.38300   23.43800
      N    N630    27.13800   36.40700   21.18400
      C    C631    28.31600   36.84400   21.91000
      C    C632    29.13800   37.84400   21.09600
      O    O633    29.70800   38.77600   21.65500
      C    C634    29.14100   35.61900   22.30800
      C    C635    30.37600   35.93100   23.12000
      C    C636    30.30400   36.74000   24.25800
      C    C637    31.61100   35.38500   22.75800
      C    C638    31.44600   37.00800   25.01100
      C    C639    32.75900   35.65300   23.51400
      C    C640    32.66900   36.46500   24.64600
      N    N641    29.19200   37.66400   19.77700
      C    C642    29.84200   38.65100   18.93100
      C    C643    29.08600   39.98700   19.01400
      O    O644    29.69800   41.03600   19.22300
      C    C645    29.93800   38.15700   17.47900
      N    N646    27.76100   39.93500   18.87100
      C    C647    26.91700   41.14200   18.82700
      C    C648    26.86800   41.92000   20.14200
      O    O649    26.76200   43.14300   20.13400
      C    C650    25.49400   40.79500   18.36500
      C    C651    24.41400   41.87400   18.23500
      C    C652    24.81500   43.01000   17.28600
      C    C653    23.12800   41.24100   17.75600
      N    N654    26.91800   41.21100   21.26200
      C    C655    26.90800   41.85500   22.58000
      C    C656    28.21200   42.62800   22.82000
      O    O657    28.21400   43.67200   23.46800
      C    C658    26.61200   40.83700   23.71100
      C    C659    27.86300   39.98500   24.05700
      C    C660    26.05300   41.54100   24.93300
      N    N661    29.30800   42.12300   22.26100
      C    C662    30.58200   42.83100   22.27000
      C    C663    30.54400   44.07500   21.39600
      O    O664    31.18800   45.06900   21.71600
      C    C665    31.71200   41.90900   21.82000
      C    C666    32.01000   40.80400   22.80900
      C    C667    33.07800   39.84400   22.30500
      O    O668    32.76400   38.77100   21.79000
      N    N669    34.34400   40.22800   22.45500
      N    N670    29.79600   44.01800   20.29500
      C    C671    29.57300   45.19500   19.45100
      C    C672    28.74400   46.23900   20.20800
      O    O673    29.09200   47.42500   20.22300
      C    C674    28.90000   44.83200   18.09300
      C    C675    28.45900   46.09000   17.33000
      C    C676    29.84500   44.01600   17.22300
      N    N677    27.65800   45.78800   20.83900
      C    C678    26.76900   46.65900   21.61200
      C    C679    27.53000   47.33100   22.75300
      O    O680    27.40200   48.54200   22.96400
      C    C681    25.52700   45.88700   22.13800
      C    C682    24.83600   46.63800   23.28500
      C    C683    24.54400   45.63900   21.00100
      N    N684    28.33000   46.53100   23.45900
      C    C685    29.18000   46.99200   24.55700
      C    C686    30.20000   48.01800   24.07700
      O    O687    30.32600   49.10000   24.66600
      C    C688    29.88400   45.80700   25.21000
      N    N689    30.91300   47.68100   23.00000
      C    C690    31.85000   48.60600   22.36500
      C    C691    31.14900   49.92900   22.07700
      O    O692    31.76900   50.99200   22.11400
      C    C693    32.41600   48.00500   21.07700
      C    C694    33.74300   48.62500   20.67500
      O    O695    34.74900   48.37200   21.37100
      O    O696    33.78100   49.35700   19.66300
      N    N697    29.85100   49.83400   21.78100
      C    C698    28.90300   50.96400   21.79500
      C    C699    28.86000   51.68200   20.47100
      O    O700    29.19800   52.86600   20.41300
      C    C701    29.22600   51.94300   22.93100
      C    C702    28.09900   52.16000   23.92100
      C    C703    28.60300   52.27800   25.35200
      O    O704    29.70000   51.76300   25.64800
      O    O705    27.90100   52.88600   26.18500
