# CIF file generated by openbabel 2.3.2, see http://openbabel.sf.net
data_I
_chemical_name_common '../proteins/pdb/3H6P.pdb'
_cell_length_a 40.288
_cell_length_b 54.572
_cell_length_c 103.101
_cell_angle_alpha 90
_cell_angle_beta 90
_cell_angle_gamma 90
_space_group_name_H-M_alt 'P 21 21 21'
_space_group_name_Hall 'P 2ac 2ab'
loop_
    _symmetry_equiv_pos_as_xyz
    'x,y,z'
    '1/2-x,-y,1/2+z'
    '-x,1/2+y,1/2-z'
    '1/2+x,1/2-y,-z'
loop_
    _atom_site_type_symbol
    _atom_site_label
    _atom_site_Cartn_x
    _atom_site_Cartn_y
    _atom_site_Cartn_z
      N    N1   -51.89300    7.60900   -2.76100
      C    C2   -52.02600    6.33300   -2.00400
      C    C3   -50.64100    5.86400   -1.59000
      O    O4   -49.73100    5.80000   -2.42600
      C    C5   -52.66600    5.26800   -2.86000
      N    N6   -50.48300    5.50300   -0.31900
      C    C7   -49.18600    5.02400    0.14100
      C    C8   -48.75900    3.79100   -0.66300
      O    O9   -47.60900    3.68800   -1.09300
      C    C10   -49.19200    4.71900    1.63700
      C    C11   -47.84500    4.33900    2.16300
      C    C12   -46.95600    5.30700    2.60400
      C    C13   -47.44000    3.00600    2.16500
      C    C14   -45.70000    4.95800    3.06600
      C    C15   -46.16100    2.64400    2.62600
      C    C16   -45.29900    3.61300    3.07000
      N    N17   -49.67200    2.84900   -0.84900
      C    C18   -49.35400    1.63000   -1.58200
      C    C19   -48.90600    1.91900   -3.02000
      O    O20   -48.03300    1.22400   -3.52800
      C    C21   -50.54300    0.67700   -1.56300
      N    N22   -49.48100    2.94100   -3.65900
      C    C23   -49.08100    3.34800   -5.02700
      C    C24   -47.67200    3.92800   -5.05500
      O    O25   -46.88900    3.61800   -5.95600
      C    C26   -50.04500    4.36600   -5.60000
      N    N27   -47.36200    4.78700   -4.07800
      C    C28   -46.02200    5.36500   -3.99100
      C    C29   -45.02900    4.27400   -3.66700
      O    O30   -43.94400    4.26000   -4.22300
      C    C31   -45.94900    6.46100   -2.93800
      C    C32   -46.81900    7.64500   -3.26200
      C    C33   -46.68200    8.73100   -2.22600
      C    C34   -47.67400    8.58500   -1.09100
      N    N35   -48.20100    9.92500   -0.72500
      N    N36   -45.40100    3.35600   -2.77600
      C    C37   -44.52900    2.21800   -2.43500
      C    C38   -44.25000    1.36700   -3.68900
      O    O39   -43.09000    1.06600   -3.99500
      C    C40   -45.14900    1.36800   -1.32300
      N    N41   -45.29600    1.01800   -4.43700
      C    C42   -45.12300    0.31500   -5.73200
      C    C43   -44.20700    1.02500   -6.71500
      O    O44   -43.32200    0.40800   -7.33700
      N    N45   -44.40600    2.33300   -6.86200
      C    C46   -43.57200    3.12900   -7.73600
      C    C47   -42.10200    3.09500   -7.30800
      O    O48   -41.22600    2.98600   -8.16300
      C    C49   -44.06500    4.57600   -7.77300
      C    C50   -44.04000    5.37500   -9.08100
      C    C51   -43.79500    6.85900   -8.79400
      C    C52   -43.10300    4.83600  -10.16400
      N    N53   -41.82800    3.18600   -5.99600
      C    C54   -40.43800    3.14800   -5.50400
      C    C55   -39.77300    1.81900   -5.80700
      O    O56   -38.63300    1.77900   -6.24600
      C    C57   -40.35900    3.43000   -4.00000
      C    C58   -38.94600    3.30300   -3.40300
      S    S59   -37.68300    4.46200   -4.01100
      C    C60   -38.06000    5.80900   -2.92300
      N    N61   -40.48900    0.73100   -5.57000
      C    C62   -39.95600   -0.60100   -5.84400
      C    C63   -39.63700   -0.77000   -7.32500
      O    O64   -38.57100   -1.28000   -7.69200
      C    C65   -40.94500   -1.67100   -5.39100
      C    C66   -41.20300   -1.75000   -3.90100
      C    C67   -42.13000   -2.95000   -3.62600
      N    N68   -42.94100   -2.80500   -2.42000
      C    C69   -42.59900   -3.27100   -1.22600
      N    N70   -41.41300   -3.86800   -1.03400
      N    N71   -43.44100   -3.09900   -0.20500
      N    N72   -40.55100   -0.32100   -8.17500
      C    C73   -40.33500   -0.32000   -9.62000
      C    C74   -39.11000    0.51300  -10.03600
      O    O75   -38.24100    0.05300  -10.78900
      C    C76   -41.58800    0.18800  -10.34100
      C    C77   -41.38500    0.37500  -11.81200
      N    N78   -41.28700   -0.68200  -12.68600
      C    C79   -41.20700    1.49200  -12.55300
      C    C80   -41.07700   -0.22500  -13.90200
      N    N81   -41.02900    1.09200  -13.85200
      N    N82   -39.03800    1.72800   -9.51200
      C    C83   -37.99000    2.67100   -9.85300
      C    C84   -36.61400    2.17900   -9.42200
      O    O85   -35.65700    2.37400  -10.13200
      C    C86   -38.30900    4.04400   -9.24100
      O    O87   -39.59300    4.47200   -9.71900
      C    C88   -37.27300    5.08300   -9.62500
      N    N89   -36.52000    1.54200   -8.26400
      C    C90   -35.25700    0.94000   -7.80800
      C    C91   -34.75000   -0.08300   -8.81800
      O    O92   -33.56000   -0.11000   -9.14000
      C    C93   -35.42900    0.31400   -6.38000
      C    C94   -35.50200    1.44900   -5.34500
      C    C95   -34.28300   -0.69600   -6.03300
      C    C96   -35.91500    1.02200   -3.93800
      N    N97   -35.64800   -0.93400   -9.30600
      C    C98   -35.28100   -1.98800  -10.26400
      C    C99   -34.84100   -1.39800  -11.59800
      O    O100   -33.84900   -1.83000  -12.20500
      N    N101   -35.56400   -0.38600  -12.05300
      C    C102   -35.17600    0.34600  -13.26700
      C    C103   -33.83600    1.06000  -13.17500
      O    O104   -33.02800    1.00500  -14.12500
      C    C105   -36.26100    1.35100  -13.66300
      C    C106   -37.49400    0.67900  -14.22200
      C    C107   -37.15000   -0.33100  -15.29800
      O    O108   -36.65400    0.03100  -16.36100
      N    N109   -37.40100   -1.61600  -15.01700
      N    N110   -33.60200    1.73000  -12.04600
      C    C111   -32.35400    2.43700  -11.81000
      C    C112   -31.19500    1.47700  -11.85000
      O    O113   -30.15500    1.76700  -12.41800
      C    C114   -32.41500    3.16000  -10.45300
      N    N115   -31.37000    0.32100  -11.21600
      C    C116   -30.35500   -0.72300  -11.21500
      C    C117   -30.04200   -1.22000  -12.61900
      O    O118   -28.86200   -1.38700  -12.96900
      C    C119   -30.78400   -1.90800  -10.33500
      C    C120   -29.61300   -2.84500   -9.99000
      C    C121   -30.04400   -4.14100   -9.32600
      O    O122   -31.27800   -4.41300   -9.27100
      O    O123   -29.14200   -4.90700   -8.88300
      N    N124   -31.08800   -1.44400  -13.41800
      C    C125   -30.91800   -1.94000  -14.79200
      C    C126   -30.21100   -0.92400  -15.66800
      O    O127   -29.33900   -1.27500  -16.45500
      C    C128   -32.27000   -2.29100  -15.41500
      C    C129   -32.91500   -3.52400  -14.80500
      C    C130   -32.09400   -4.79000  -15.03100
      O    O131   -31.58400   -5.02800  -16.14000
      N    N132   -31.95500   -5.60700  -13.97800
      N    N133   -30.60700    0.33200  -15.54500
      C    C134   -29.94400    1.42400  -16.25700
      C    C135   -28.45200    1.51400  -15.93300
      O    O136   -27.64200    1.62800  -16.84600
      C    C137   -30.62300    2.76200  -15.96000
      C    C138   -29.91700    3.97500  -16.59400
      C    C139   -28.98700    4.64500  -15.61000
      O    O140   -29.44000    5.18600  -14.59400
      N    N141   -27.68800    4.63100  -15.90100
      N    N142   -28.10400    1.45700  -14.64500
      C    C143   -26.71600    1.57700  -14.19100
      C    C144   -25.86100    0.38800  -14.65100
      O    O145   -24.70900    0.56000  -15.09400
      C    C146   -26.66900    1.72000  -12.66700
      N    N147   -26.42700   -0.81000  -14.55500
      C    C148   -25.73200   -2.03500  -15.02100
      C    C149   -25.45000   -1.94000  -16.52000
      O    O150   -24.32000   -2.18700  -16.98800
      C    C151   -26.56500   -3.27900  -14.67300
      C    C152   -26.62600   -3.58600  -13.16900
      S    S153   -27.65300   -5.05800  -12.71300
      C    C154   -26.80200   -6.30300  -13.48800
      N    N155   -26.47400   -1.55500  -17.27400
      C    C156   -26.34700   -1.41700  -18.72700
      C    C157   -25.29600   -0.36700  -19.13200
      O    O158   -24.55600   -0.55200  -20.09700
      C    C159   -27.69000   -1.04200  -19.33900
      O    O160   -27.54300   -0.90700  -20.73400
      N    N161   -25.30100    0.76200  -18.43200
      C    C162   -24.37400    1.85700  -18.70300
      C    C163   -22.94900    1.41800  -18.40400
      O    O164   -22.02600    1.76200  -19.13800
      C    C165   -24.74800    3.06100  -17.85500
      N    N166   -22.75600    0.63600  -17.34800
      C    C167   -21.40500    0.17800  -16.99900
      C    C168   -20.90200   -0.79400  -18.06900
      O    O169   -19.73600   -0.72300  -18.51300
      C    C170   -21.38100   -0.45600  -15.60300
      C    C171   -20.06800   -1.16300  -15.23900
      C    C172   -18.90800   -0.22600  -15.00400
      O    O173   -17.75200   -0.64900  -14.99500
      N    N174   -19.19800    1.03800  -14.80300
      N    N175   -21.77200   -1.68900  -18.50100
      C    C176   -21.39600   -2.65000  -19.52500
      C    C177   -21.02400   -1.91100  -20.81800
      O    O178   -20.01700   -2.20600  -21.45800
      C    C179   -22.53900   -3.62900  -19.75900
      N    N180   -21.82700   -0.92100  -21.18000
      C    C181   -21.54900   -0.09200  -22.36100
      C    C182   -20.20800    0.62700  -22.25100
      O    O183   -19.38700    0.60800  -23.17500
      C    C184   -22.66500    0.94200  -22.52800
      C    C185   -22.38500    1.95400  -23.59600
      C    C186   -22.33100    1.56400  -24.92100
      C    C187   -22.15900    3.28300  -23.26800
      C    C188   -22.06900    2.48600  -25.91200
      C    C189   -21.87100    4.20700  -24.25200
      C    C190   -21.83600    3.81000  -25.57300
      N    N191   -19.97900    1.25500  -21.11800
      C    C192   -18.77000    2.02600  -20.91400
      C    C193   -17.50000    1.16300  -20.88000
      O    O194   -16.46100    1.57800  -21.41700
      C    C195   -18.93200    2.94800  -19.70300
      C    C196   -19.79200    4.14100  -19.99900
      N    N197   -21.12500    4.21800  -19.63800
      C    C198   -19.52700    5.27600  -20.69100
      C    C199   -21.62900    5.36400  -20.06600
      N    N200   -20.67900    6.02400  -20.70600
      N    N201   -17.57800   -0.03600  -20.30300
      C    C202   -16.45000   -0.98100  -20.34600
      C    C203   -16.44600   -0.97300  -20.35000
      C    C204   -16.11600   -1.37400  -21.79300
      O    O205   -14.94200   -1.39100  -22.19500
      C    C206   -16.73400   -2.22600  -19.48800
      C    C207   -16.73200   -2.21400  -19.50400
      C    C208   -16.42100   -2.02900  -17.99700
      C    C209   -16.84500   -1.91800  -18.01400
      C    C210   -17.09200   -3.06700  -17.08500
      C    C211   -15.50800   -1.88600  -17.30500
      O    O212   -17.94300   -3.85500  -17.52000
      O    O213   -14.84700   -2.91400  -17.13300
      N    N214   -16.72900   -3.04900  -15.81400
      N    N215   -15.11100   -0.70300  -16.86900
      N    N216   -17.14500   -1.67100  -22.58400
      C    C217   -16.95600   -2.03600  -23.99100
      C    C218   -16.41800   -0.87800  -24.84100
      O    O219   -15.56200   -1.08100  -25.72600
      N    N220   -16.93700    0.32300  -24.60300
      C    C221   -16.50600    1.52600  -25.32600
      C    C222   -15.04200    1.82800  -25.02100
      O    O223   -14.26900    2.12700  -25.91100
      C    C224   -17.36100    2.73300  -24.93600
      C    C225   -18.79000    2.75800  -25.48300
      C    C226   -18.90200    2.67800  -27.00700
      O    O227   -18.96100    3.75200  -27.67700
      O    O228   -18.96800    1.53500  -27.53900
      N    N229   -14.66100    1.71000  -23.76000
      C    C230   -13.26800    1.87400  -23.34400
      C    C231   -12.34400    0.85700  -24.02200
      O    O232   -11.27400    1.21000  -24.55100
      C    C233   -13.15800    1.77200  -21.80300
      O    O234   -11.78000    1.76000  -21.41600
      N    N235   -12.75900   -0.40200  -24.03100
      C    C236   -11.96400   -1.47400  -24.64200
      C    C237   -11.77200   -1.23900  -26.15300
      O    O238   -10.65100   -1.30900  -26.67800
      C    C239   -12.61200   -2.80700  -24.37800
      N    N240   -12.85900   -0.90300  -26.83300
      C    C241   -12.81700   -0.57400  -28.26500
      C    C242   -11.96100    0.65800  -28.56200
      O    O243   -11.21400    0.66400  -29.55000
      C    C244   -14.23200   -0.35100  -28.78200
      N    N245   -12.07000    1.69600  -27.72600
      C    C246   -11.29300    2.92800  -27.93300
      C    C247    -9.80400    2.62900  -27.72100
      O    O248    -8.96000    3.07700  -28.49200
      C    C249   -11.77000    4.05400  -27.01800
      N    N250    -9.47900    1.84400  -26.71000
      C    C251    -8.09000    1.44200  -26.50400
      C    C252    -7.49900    0.64600  -27.68500
      O    O253    -6.36100    0.88600  -28.10800
      C    C254    -7.92600    0.60800  -25.23400
      C    C255    -6.52000    0.16600  -25.02000
      C    C256    -5.58300    1.05300  -24.52900
      C    C257    -6.11800   -1.12300  -25.35500
      C    C258    -4.26000    0.65900  -24.37500
      C    C259    -4.80700   -1.51900  -25.19700
      C    C260    -3.88600   -0.61800  -24.69400
      N    N261    -8.24900   -0.31500  -28.19500
      C    C262    -7.79800   -1.10100  -29.35400
      C    C263    -7.54100   -0.20800  -30.57100
      O    O264    -6.50800   -0.34000  -31.23500
      C    C265    -8.81300   -2.19100  -29.70400
      C    C266    -8.82400   -3.35200  -28.73500
      C    C267    -9.92300   -4.40600  -29.02700
      O    O268   -10.66500   -4.26500  -29.99800
      N    N269    -9.97900   -5.46800  -28.23100
      N    N270    -8.44900    0.72400  -30.85000
      C    C271    -8.22800    1.68000  -31.94700
      C    C272    -6.99100    2.54900  -31.75700
      O    O273    -6.15900    2.67900  -32.65300
      N    N274    -6.88000    3.14800  -30.57500
      C    C275    -5.73200    3.95700  -30.20400
      C    C276    -4.43500    3.17300  -30.36300
      O    O277    -3.45500    3.68700  -30.91700
      C    C278    -5.88600    4.45200  -28.76300
      N    N279    -4.43400    1.93300  -29.87500
      C    C280    -3.25400    1.06500  -29.91100
      C    C281    -2.82000    0.75500  -31.33800
      O    O282    -1.62600    0.80600  -31.65800
      C    C283    -3.50700   -0.22700  -29.12300
      C    C284    -2.28000   -1.06200  -28.91000
      N    N285    -2.33600   -2.37300  -28.49600
      C    C286    -0.96400   -0.76300  -29.02700
      C    C287    -1.10900   -2.85300  -28.39200
      N    N288    -0.25800   -1.89300  -28.70900
      N    N289    -3.78500    0.44400  -32.19100
      C    C290    -3.54500    0.28200  -33.61500
      C    C291    -2.93300    1.55400  -34.23600
      O    O292    -1.96200    1.46500  -34.99600
      C    C293    -4.86700   -0.12100  -34.32400
      N    N294    -3.46400    2.72800  -33.88500
      C    C295    -2.95200    3.99500  -34.41200
      C    C296    -1.53900    4.28300  -33.93100
      O    O297    -0.70600    4.82600  -34.68500
      C    C298    -3.87200    5.17000  -34.07300
      C    C299    -5.17500    5.15800  -34.86400
      C    C300    -5.93400    6.45800  -34.72600
      N    N301    -6.28200    6.77100  -33.34000
      C    C302    -7.35100    6.29700  -32.69600
      N    N303    -8.18400    5.45100  -33.29000
      N    N304    -7.57600    6.65400  -31.43300
      N    N305    -1.27400    3.92900  -32.68100
      C    C306     0.05900    4.07100  -32.09000
      C    C307     1.11000    3.20800  -32.82600
      O    O308     2.20400    3.67800  -33.15500
      C    C309     0.00300    3.69100  -30.59500
      C    C310     1.33700    3.80400  -29.88500
      C    C311     1.67500    4.94800  -29.18800
      C    C312     2.24500    2.76400  -29.91900
      C    C313     2.92200    5.04600  -28.52400
      C    C314     3.48000    2.86700  -29.27300
      C    C315     3.79900    3.99500  -28.56800
      N    N316     0.77000    1.94600  -33.05400
      C    C317     1.62700    1.00800  -33.77800
      C    C318     1.89700    1.51200  -35.21100
      O    O319     3.04600    1.51700  -35.65700
      C    C320     1.01400   -0.40400  -33.73800
      C    C321     1.69100   -1.35800  -34.71100
      C    C322     1.08900   -0.94000  -32.31400
      N    N323     0.86200    1.97000  -35.90500
      C    C324     1.04100    2.51100  -37.26900
      C    C325     1.96800    3.72100  -37.25600
      O    O326     2.87500    3.82200  -38.08400
      C    C327    -0.29500    2.87400  -37.88600
      N    N328     1.77600    4.62300  -36.28900
      C    C329     2.62600    5.82900  -36.15900
      C    C330     4.08100    5.48500  -35.84300
      O    O331     5.00800    6.08400  -36.40700
      C    C332     2.06400    6.78300  -35.07900
      N    N333     4.27900    4.52400  -34.94700
      C    C334     5.61200    4.05300  -34.59500
      C    C335     6.36400    3.46700  -35.79900
      O    O336     7.57700    3.69700  -35.95600
      C    C337     5.53400    3.05200  -33.45700
      N    N338     5.66600    2.70200  -36.63100
      C    C339     6.25200    2.19800  -37.87900
      C    C340     6.75800    3.36700  -38.74500
      O    O341     7.85400    3.31100  -39.30700
      C    C342     5.21000    1.35700  -38.65700
      N    N343     5.98500    4.44600  -38.81100
      C    C344     6.37800    5.59700  -39.63100
      C    C345     7.59000    6.27500  -39.02400
      O    O346     8.50200    6.66100  -39.72800
      C    C347     5.22800    6.58200  -39.77300
      C    C348     4.06300    6.02300  -40.54800
      C    C349     2.95700    7.04800  -40.72300
      C    C350     1.61400    6.37900  -40.97600
      N    N351     0.50700    7.38200  -41.04000
      N    N352     7.58600    6.41300  -37.69900
      C    C353     8.71400    7.00200  -36.98100
      C    C354     9.96700    6.19300  -37.24300
      O    O355    11.02300    6.75500  -37.51200
      C    C356     8.43700    7.10500  -35.44200
      C    C357     9.74800    7.35300  -34.67500
      C    C358     7.41000    8.18900  -35.18000
      N    N359     9.86000    4.86800  -37.21200
      C    C360    11.04100    4.04100  -37.49500
      C    C361    11.57000    4.18500  -38.93400
      O    O362    12.78000    4.29000  -39.16200
      C    C363    10.79600    2.58000  -37.07100
      C    C364    10.98700    2.39500  -35.58100
      O    O365    12.09800    2.51100  -35.08500
      N    N366     9.90500    2.14800  -34.85300
      N    N367    10.66700    4.23100  -39.89500
      C    C368    11.02900    4.50500  -41.29000
      C    C369    11.70000    5.86300  -41.44900
      O    O370    12.71800    5.98100  -42.14700
      C    C371     9.78800    4.43100  -42.20900
      O    O372     9.24000    3.10000  -42.16000
      C    C373    10.17000    4.77100  -43.64100
      N    N374    11.14800    6.88100  -40.78400
      C    C375    11.71300    8.23100  -40.88300
      C    C376    13.06800    8.36400  -40.17300
      O    O377    13.89300    9.18100  -40.58400
      C    C378    10.71400    9.26800  -40.36600
      C    C379     9.50700    9.42600  -41.27400
      C    C380     8.34700   10.09400  -40.54300
      C    C381     9.89000   10.22700  -42.52700
      N    N382    13.28600    7.61300  -39.08600
      C    C383    14.58700    7.62400  -38.42300
      C    C384    15.64900    7.02000  -39.34200
      O    O385    16.78500    7.48100  -39.39100
      C    C386    14.55300    6.82400  -37.10700
      C    C387    13.97700    7.48600  -35.87600
      C    C388    13.89600    6.49300  -34.70800
      C    C389    14.84500    8.71600  -35.55200
      N    N390    15.29400    5.95900  -40.05300
      C    C391    16.23200    5.37100  -41.02100
      C    C392    16.58300    6.34300  -42.13100
      O    O393    17.75600    6.45800  -42.50400
      C    C394    15.68400    4.08100  -41.60700
      C    C395    15.61800    2.97600  -40.59400
      O    O396    16.28800    3.08300  -39.54800
      O    O397    14.86200    2.00400  -40.83500
      N    N398    15.58600    7.05100  -42.65100
      C    C399    15.83000    8.07500  -43.65800
      C    C400    16.77100    9.16800  -43.14000
      O    O401    17.68200    9.57500  -43.84000
      C    C402    14.50300    8.71700  -44.21000
      C    C403    13.70200    7.68900  -45.00100
      C    C404    14.83100    9.91200  -45.12900
      C    C405    12.26700    8.11100  -45.32100
      N    N406    16.55900    9.61800  -41.90900
      C    C407    17.41900   10.60500  -41.29500
      C    C408    18.83900   10.07800  -41.22100
      O    O409    19.75800   10.76800  -41.63100
      C    C410    16.90200   10.99500  -39.91400
      N    N411    19.01000    8.84400  -40.75000
      C    C412    20.32700    8.23000  -40.62400
      C    C413    21.06300    8.15600  -41.96700
      O    O414    22.25900    8.49200  -42.04400
      C    C415    20.23000    6.82600  -39.99300
      C    C416    21.60900    6.26400  -39.64000
      C    C417    21.61000    4.84600  -39.11000
      O    O418    22.63800    4.13800  -39.21900
      N    N419    20.52500    4.43900  -38.48800
      N    N420    20.34000    7.73300  -43.01600
      C    C421    20.87900    7.67100  -44.39800
      C    C422    21.33800    9.02900  -44.90800
      O    O423    22.19800    9.10200  -45.78000
      C    C424    19.82600    7.08700  -45.37500
      N    N425    20.73400   10.09900  -44.40500
      C    C426    21.04300   11.45100  -44.86800
      C    C427    22.02500   12.18900  -43.96100
      O    O428    22.19500   13.41400  -44.08600
      C    C429    19.74800   12.24500  -45.05000
      C    C430    19.05200   11.89800  -46.33800
      O    O431    19.48200   12.31000  -47.39600
      N    N432    18.00200   11.11100  -46.26200
      N    N433    22.66500   11.46500  -43.04100
      C    C434    23.70600   12.05100  -42.19800
      C    C435    25.06300   11.79400  -42.84200
      O    O436    25.90500   12.69400  -42.90400
      C    C437    23.69700   11.45800  -40.78400
      C    C438    22.50700   11.69900  -39.86100
      C    C439    22.79600   11.07000  -38.49700
      C    C440    22.16800   13.18000  -39.70300
