# CIF file generated by openbabel 2.3.2, see http://openbabel.sf.net
data_I
_chemical_name_common '../proteins/pdb/3HUG.pdb'
_cell_length_a 83.07
_cell_length_b 166.77
_cell_length_c 178.87
_cell_angle_alpha 90
_cell_angle_beta 90
_cell_angle_gamma 90
_space_group_name_H-M_alt 'P 21 21 21'
_space_group_name_Hall 'P 2ac 2ab'
loop_
    _symmetry_equiv_pos_as_xyz
    'x,y,z'
    '1/2-x,-y,1/2+z'
    '-x,1/2+y,1/2-z'
    '1/2+x,1/2-y,-z'
loop_
    _atom_site_type_symbol
    _atom_site_label
    _atom_site_Cartn_x
    _atom_site_Cartn_y
    _atom_site_Cartn_z
      N    N1   -23.15400  103.59500   21.34700
      C    C2   -23.50600  105.01400   21.63100
      C    C3   -24.99400  105.11500   21.93000
      O    O4   -25.78500  104.39600   21.34700
      C    C5   -23.15300  105.88100   20.42800
      C    C6   -21.66500  105.91500   20.14400
      O    O7   -20.85300  105.38700   20.93700
      O    O8   -21.28900  106.48600   19.10400
      N    N9   -25.38500  106.00100   22.85300
      C    C10   -26.81200  106.13100   23.10200
      C    C11   -27.58700  106.61200   21.87000
      O    O12   -27.02600  107.23400   20.96600
      C    C13   -26.88300  107.18600   24.20300
      C    C14   -25.54200  107.13300   24.86800
      C    C15   -24.56600  106.76700   23.80600
      N    N16   -28.88200  106.32700   21.85500
      C    C17   -29.77300  106.77200   20.79600
      C    C18   -29.92400  108.30100   20.81900
      O    O19   -30.03700  108.89800   21.87800
      C    C20   -31.13800  106.10100   20.97800
      C    C21   -32.17900  106.83400   21.65800
      C    C22   -33.63200  106.58100   21.13700
      O    O23   -34.57700  107.19700   21.68700
      O    O24   -33.83100  105.78700   20.18800
      N    N25   -29.91000  108.94600   19.65900
      C    C26   -30.19400  110.38600   19.62000
      C    C27   -31.50100  110.60700   18.90200
      O    O28   -31.95600  109.74700   18.16300
      C    C29   -29.11000  111.12900   18.85400
      C    C30   -27.77900  110.44600   18.89700
      C    C31   -26.72700  111.21200   18.14600
      O    O32   -26.08700  110.67000   17.24200
      N    N33   -26.54600  112.48400   18.50100
      N    N34   -32.09500  111.76900   19.11100
      C    C35   -33.22400  112.18200   18.30800
      C    C36   -32.83500  112.18500   16.82500
      O    O37   -31.66300  112.24200   16.45600
      C    C38   -33.64400  113.57900   18.72200
      O    O39   -32.65000  114.51300   18.34000
      N    N40   -33.84100  112.12400   15.97400
      C    C41   -33.63100  112.11600   14.54300
      C    C42   -32.97000  113.40400   14.04700
      O    O43   -32.03700  113.36500   13.26100
      C    C44   -34.97200  111.86300   13.82100
      O    O45   -35.32900  110.49900   14.03200
      C    C46   -34.85000  112.11900   12.33000
      N    N47   -33.46000  114.55200   14.50400
      C    C48   -32.77400  115.78300   14.09100
      C    C49   -31.28700  115.78500   14.48900
      O    O50   -30.43300  116.14100   13.67100
      C    C51   -33.55600  116.89600   14.81500
      C    C52   -34.90900  116.28000   15.17600
      C    C53   -34.64000  114.79900   15.36600
      N    N54   -30.97600  115.38600   15.71700
      C    C55   -29.58800  115.40700   16.19400
      C    C56   -28.74400  114.49600   15.35000
      O    O57   -27.59300  114.79300   15.00800
      C    C58   -29.49500  114.91500   17.63900
      C    C59   -29.77300  116.00200   18.63100
      O    O60   -30.15700  117.10400   18.19600
      O    O61   -29.60700  115.76400   19.84500
      N    N62   -29.32000  113.35500   15.02600
      C    C63   -28.61600  112.38600   14.23800
      C    C64   -28.28200  112.97100   12.85700
      O    O65   -27.14700  112.90500   12.39800
      C    C66   -29.47300  111.15200   14.11000
      C    C67   -29.10100  110.32700   12.92700
      C    C68   -28.37800  109.07400   13.31400
      O    O69   -29.04600  108.00900   13.30200
      O    O70   -27.15900  109.15600   13.63000
      N    N71   -29.27000  113.57900   12.20800
      C    C72   -29.03900  114.13300   10.88600
      C    C73   -28.07200  115.32700   10.90000
      O    O74   -27.16800  115.42700   10.07000
      C    C75   -30.37700  114.47000   10.19200
      C    C76   -30.16000  115.20900    8.82600
      C    C77   -31.18800  113.18500   10.02300
      N    N78   -28.26000  116.22600   11.85000
      C    C79   -27.42000  117.41200   11.93100
      C    C80   -25.95800  117.08200   12.12400
      O    O81   -25.08600  117.68300   11.48000
      C    C82   -27.92200  118.34900   13.02500
      C    C83   -29.19400  119.06500   12.60400
      O    O84   -29.46800  119.19000   11.40700
      N    N85   -29.98000  119.52000   13.56500
      N    N86   -25.69800  116.10400   12.98200
      C    C87   -24.34700  115.68300   13.23100
      C    C88   -23.76000  115.06100   11.96700
      O    O89   -22.57400  115.25900   11.65600
      C    C90   -24.30000  114.70100   14.42300
      N    N91   -24.56800  114.31900   11.21900
      C    C92   -24.04900  113.75400    9.97500
      C    C93   -23.76200  114.86800    8.97700
      O    O94   -22.75800  114.82800    8.26700
      C    C95   -25.00000  112.74000    9.37300
      N    N96   -24.64000  115.86100    8.92800
      C    C97   -24.43200  117.00500    8.03300
      C    C98   -23.10100  117.68700    8.39100
      O    O99   -22.20900  117.85500    7.54200
      C    C100   -25.58100  118.00000    8.17700
      C    C101   -26.07700  118.70500    6.91200
      C    C102   -26.84700  120.04100    7.25500
      C    C103   -24.92600  118.95700    5.89100
      N    N104   -22.95900  118.02500    9.67100
      C    C105   -21.71500  118.59200   10.16100
      C    C106   -20.47100  117.80900    9.71700
      O    O107   -19.50800  118.41700    9.22500
      C    C108   -21.72500  118.68300   11.67800
      C    C109   -22.14300  120.05500   12.18600
      O    O110   -22.31100  121.00900   11.37800
      O    O111   -22.31300  120.17200   13.41900
      N    N112   -20.47300  116.48400    9.91400
      C    C113   -19.30700  115.69400    9.54000
      C    C114   -19.33600  115.65000    9.53600
      C    C115   -19.08500  115.82300    8.04700
      O    O116   -17.96000  115.83500    7.58600
      C    C117   -19.44400  114.21900    9.94100
      C    C118   -19.59300  114.16500    9.86400
      C    C119   -19.58500  113.98100   11.44800
      C    C120   -19.60800  113.81000   11.37000
      C    C121   -19.27200  112.52300   11.83600
      C    C122   -19.72800  112.27600   11.62700
      N    N123   -19.41500  111.57900   10.72300
      N    N124   -21.03000  111.86100   12.17700
      C    C125   -18.44300  110.77000   10.31100
      C    C126   -21.94600  111.17000   11.50500
      N    N127   -17.26200  110.77000   10.92200
      N    N128   -21.72500  110.78600   10.25400
      N    N129   -18.64800  109.95400    9.29000
      N    N130   -23.08000  110.85000   12.08600
      N    N131   -20.16300  115.95200    7.29500
      C    C132   -20.06700  116.11500    5.85900
      C    C133   -19.31700  117.42900    5.51200
      O    O134   -18.40800  117.45700    4.68300
      C    C135   -21.48600  116.15100    5.27600
      C    C136   -21.80700  115.31000    4.03700
      C    C137   -21.19000  115.93800    2.77700
      C    C138   -21.34100  113.82800    4.23500
      N    N139   -19.72800  118.52200    6.13900
      C    C140   -19.17800  119.82700    5.81600
      C    C141   -17.70400  119.95300    6.26200
      O    O142   -16.84900  120.46200    5.50800
      C    C143   -20.04800  120.89400    6.45800
      C    C144   -21.50300  120.94500    5.95000
      C    C145   -22.28900  121.99100    6.71700
      C    C146   -21.58100  121.22600    4.44400
      N    N147   -17.41900  119.45800    7.47600
      C    C148   -16.08200  119.42300    8.01500
      C    C149   -15.15700  118.65400    7.07600
      O    O150   -14.06400  119.12400    6.73200
      C    C151   -16.07100  118.86100    9.45900
      C    C152   -16.92600  119.75200   10.34800
      C    C153   -14.70000  118.92300   10.05200
      C    C154   -17.14000  119.21500   11.74600
      N    N155   -15.60600  117.50100    6.60700
      C    C156   -14.83000  116.73200    5.63800
      C    C157   -14.60300  117.54400    4.35900
      O    O158   -13.50500  117.59500    3.80800
      C    C159   -15.53800  115.43300    5.31100
      N    N160   -15.66600  118.16800    3.88400
      C    C161   -15.59500  119.03100    2.72100
      C    C162   -14.55700  120.13800    2.96300
      O    O163   -13.68100  120.39200    2.12100
      C    C164   -16.96900  119.64900    2.53300
      C    C165   -17.19200  120.15600    1.14800
      O    O166   -16.26100  120.03100    0.32100
      O    O167   -18.31100  120.67800    0.87900
      N    N168   -14.64100  120.79000    4.12100
      C    C169   -13.69900  121.86000    4.42300
      C    C170   -12.22900  121.38800    4.36600
      O    O171   -11.36800  122.09500    3.81800
      C    C172   -14.01500  122.50100    5.75800
      N    N173   -11.95000  120.20600    4.92000
      C    C174   -10.60100  119.65800    4.92600
      C    C175   -10.15200  119.26800    3.52300
      O    O176    -8.98600  119.43500    3.16800
      C    C177   -10.50400  118.44000    5.83800
      C    C178   -10.54400  118.65500    7.34800
      C    C179   -10.88200  117.34000    8.00500
      C    C180    -9.19300  119.15800    7.80800
      N    N181   -11.06600  118.73200    2.72800
      C    C182   -10.72800  118.41500    1.34200
      C    C183   -10.33900  119.69300    0.58700
      O    O184    -9.51400  119.66200   -0.33000
      C    C185   -11.88700  117.69900    0.64100
      N    N186   -10.89900  120.82300    0.98300
      C    C187   -10.61900  122.06500    0.27100
      C    C188    -9.31500  122.72400    0.69400
      O    O189    -8.88100  123.68900    0.09600
      C    C190   -11.76200  123.03400    0.48100
      C    C191   -13.07400  122.50600   -0.06700
      C    C192   -14.05600  123.62900   -0.23500
      O    O193   -13.69700  124.67400   -0.78300
      N    N194   -15.29100  123.44700    0.25700
      N    N195    -8.70700  122.22100    1.75500
      C    C196    -7.39500  122.67900    2.13900
      C    C197    -6.37600  122.32700    1.03700
      O    O198    -6.49700  121.29900    0.37100
      C    C199    -7.00300  121.95100    3.40200
      C    C200    -6.92300  122.66700    4.73900
      C    C201    -7.65000  124.00100    4.78200
      C    C202    -7.30000  121.74400    5.90500
      N    N203    -5.35200  123.15300    0.87100
      C    C204    -4.24600  122.77900    0.00000
      C    C205    -3.60200  121.53600    0.60100
      O    O206    -3.75400  121.29100    1.79500
      C    C207    -3.21400  123.88600   -0.04900
      O    O208    -2.55700  123.96200    1.20400
      N    N209    -2.86000  120.78400   -0.20100
      C    C210    -2.21200  119.57400    0.28300
      C    C211    -1.30000  119.83000    1.47800
      O    O212    -1.27400  119.05200    2.42500
      C    C213    -1.42300  118.87800   -0.86900
      N    N214    -0.54300  120.92100    1.43300
      C    C215     0.34800  121.27400    2.54000
      C    C216    -0.36800  121.63300    3.84100
      O    O217     0.13000  121.34300    4.93700
      C    C218     1.22800  122.44500    2.15400
      C    C219     2.30100  122.10400    1.16100
      C    C220     3.09400  123.33400    0.76700
      O    O221     3.21500  124.27300    1.59200
      O    O222     3.59600  123.36400   -0.37200
      N    N223    -1.51700  122.30600    3.73100
      C    C224    -2.24500  122.67400    4.92500
      C    C225    -2.87300  121.43100    5.52300
      O    O226    -2.83200  121.23100    6.71600
      C    C227    -3.29600  123.73000    4.60500
      C    C228    -2.73600  125.11100    4.49400
      N    N229    -3.47600  126.18100    4.03600
      C    C230    -1.50400  125.60200    4.78200
      C    C231    -2.73000  127.27100    4.05600
      N    N232    -1.52700  126.94700    4.49800
      N    N233    -3.45700  120.58500    4.68000
      C    C234    -4.06800  119.34700    5.17100
      C    C235    -3.00200  118.44300    5.77800
      O    O236    -3.24500  117.78900    6.78500
      C    C237    -4.81600  118.62600    4.05600
      C    C238    -5.51000  117.35900    4.50500
      C    C239    -6.50900  116.85400    3.46200
      N    N240    -5.89200  116.76200    2.13500
      C    C241    -6.06200  117.66100    1.16200
      N    N242    -6.85900  118.71700    1.33300
      N    N243    -5.42800  117.50100    0.01600
      N    N244    -1.80800  118.44900    5.19300
      C    C245    -0.73200  117.58100    5.65900
      C    C246    -0.34000  117.88400    7.08700
      O    O247    -0.20800  116.95300    7.88800
      C    C248     0.49100  117.65700    4.74000
      N    N249    -0.14900  119.16700    7.41900
      C    C250     0.17200  119.51000    8.80900
      C    C251    -0.97700  119.30600    9.79100
      O    O252    -0.74800  118.97400   10.95200
      C    C253     0.74600  120.94000    8.99700
      C    C254     2.14900  121.02000    8.41200
      C    C255    -0.16700  122.00000    8.39900
      N    N256    -2.21700  119.50700    9.35100
      C    C257    -3.35300  119.27600   10.24400
      C    C258    -3.51900  117.78900   10.50400
      O    O259    -3.78400  117.39200   11.61800
      C    C260    -4.67000  119.85100    9.67400
      C    C261    -4.61000  121.38700    9.69000
      C    C262    -5.85500  119.31600   10.44200
      C    C263    -5.87200  122.06600    9.27500
      N    N264    -3.35700  116.96700    9.47100
      C    C265    -3.47800  115.50500    9.61300
      C    C266    -2.43500  114.97400   10.61100
      O    O267    -2.74800  114.23100   11.52200
      C    C268    -3.33900  114.82800    8.23500
      C    C269    -3.51200  113.31100    8.20300
      C    C270    -3.41700  112.71500    6.77700
      O    O271    -3.66000  111.51700    6.57400
      N    N272    -3.08200  113.55500    5.78700
      N    N273    -1.19800  115.41700   10.45500
      C    C274    -0.11100  114.98400   11.32900
      C    C275    -0.24500  115.44100   12.78300
      O    O276    -0.04500  114.64600   13.72600
      C    C277     1.24600  115.37100   10.72100
      C    C278     1.78000  114.30200    9.77000
      C    C279     2.66700  114.82700    8.62900
      N    N280     1.94600  114.62000    7.37900
      C    C281     2.32300  113.79800    6.41800
      N    N282     3.46400  113.14700    6.51700
      N    N283     1.57600  113.65100    5.33800
      N    N284    -0.59100  116.70300   13.00200
      C    C285    -0.68100  117.17300   14.38100
      C    C286    -1.91900  116.66900   15.08100
      O    O287    -1.83200  116.09000   16.16100
      C    C288    -0.65100  118.68800   14.45500
      O    O289    -1.62500  119.26000   13.58800
      N    N290    -3.08400  116.88800   14.49000
      C    C291    -4.30600  116.55500   15.20300
      C    C292    -4.70200  115.08800   15.09500
      O    O293    -5.05200  114.47100   16.08900
      C    C294    -5.48200  117.43500   14.76500
      C    C295    -6.71700  117.14500   15.58100
      C    C296    -6.96300  117.82400   16.78100
      C    C297    -7.62900  116.16700   15.18100
      C    C298    -8.08200  117.56300   17.53500
      C    C299    -8.76800  115.88900   15.95000
      C    C300    -8.97700  116.58900   17.12500
      O    O301   -10.09800  116.31600   17.89500
      N    N302    -4.67500  114.53200   13.89000
      C    C303    -5.16900  113.17100   13.71000
      C    C304    -4.17400  112.07000   14.14200
      O    O305    -4.58700  111.05600   14.70900
      C    C306    -5.70800  112.98000   12.29000
      C    C307    -6.98800  113.77100   12.11800
      C    C308    -8.19300  113.32400   12.68800
      C    C309    -6.98300  115.01100   11.45100
      C    C310    -9.35200  114.06400   12.56200
      C    C311    -8.13200  115.75400   11.32500
      C    C312    -9.32400  115.28200   11.86900
      O    O313   -10.47100  116.04700   11.73700
      N    N314    -2.88200  112.30200   13.90000
      C    C315    -1.81700  111.38400   14.27500
      C    C316    -1.15300  111.73200   15.59600
      O    O317    -0.31900  110.98300   16.03100
      C    C318    -0.72000  111.33300   13.20800
      C    C319    -1.16300  110.82800   11.85800
      C    C320     0.01700  110.81400   10.92800
      N    N321    -0.36100  110.47200    9.55900
      C    C322     0.46500  110.51400    8.51900
      N    N323     1.72800  110.89100    8.67500
      N    N324     0.03200  110.17700    7.32100
      N    N325    -1.49400  112.86300   16.21500
      C    C326    -0.89500  113.26600   17.49500
      C    C327     0.58200  113.67700   17.47900
      O    O328     1.18000  113.83700   18.53900
      N    N329     1.18200  113.85800   16.29900
      C    C330     2.60600  114.22200   16.21300
      C    C331     2.94500  115.59700   16.78100
      O    O332     2.08300  116.48200   16.89500
      C    C333     3.12900  114.14700   14.78200
      C    C334     3.11200  112.78000   14.20800
      C    C335     2.58600  111.66600   14.78300
      C    C336     3.60100  112.38200   12.91700
      N    N337     2.73200  110.58700   13.93600
      C    C338     3.35300  111.00000   12.78600
      C    C339     4.24400  113.05500   11.87200
      C    C340     3.70600  110.28200   11.64500
      C    C341     4.60200  112.34700   10.74200
      C    C342     4.33100  110.97100   10.63300
      N    N343     4.21400  115.75700   17.14000
      C    C344     4.75400  117.02000   17.62200
      C    C345     5.33000  117.80400   16.44300
      O    O346     5.65500  117.24100   15.38800
      C    C347     5.90900  116.74000   18.59100
      O    O348     7.04300  116.32500   17.82000
      N    N349     5.52400  119.09800   16.63700
      C    C350     6.08500  119.89900   15.55400
      C    C351     7.42800  119.33000   15.06000
      O    O352     7.65100  119.16200   13.82800
      C    C353     6.15900  121.35900   15.94600
      O    O354     7.14100  121.53300   16.95700
      C    C355     4.80400  121.82700   16.52000
      N    N356     8.30300  118.96000   15.99600
      C    C357     9.61900  118.38400   15.61400
      C    C358     9.46600  117.19400   14.69100
      O    O359    10.14100  117.09400   13.64900
      C    C360    10.42600  117.98600   16.84900
      N    N361     8.56800  116.28300   15.06100
      C    C362     8.33800  115.09200   14.23800
      C    C363     7.78800  115.47400   12.87200
      O    O364     8.19000  114.91100   11.84000
      C    C365     7.36800  114.13300   14.91700
      C    C366     7.41400  114.13200   16.43600
      C    C367     6.40400  113.13100   17.01500
      O    O368     6.12900  112.09400   16.40200
      N    N369     5.84800  113.44400   18.19100
      N    N370     6.84500  116.41700   12.86100
      C    C371     6.27400  116.86700   11.59500
      C    C372     7.37200  117.47700   10.73800
      O    O373     7.42700  117.24600    9.53600
      C    C374     5.11800  117.88300   11.80700
      C    C375     4.01700  117.25000   12.66100
      C    C376     4.58100  118.36000   10.47300
      C    C377     2.86900  118.16100   12.95700
      N    N378     8.26100  118.23500   11.37600
      C    C379     9.39100  118.85900   10.67500
      C    C380    10.23500  117.83000    9.92600
      O    O381    10.53800  118.02000    8.74200
      C    C382    10.25600  119.69300   11.63500
      N    N383    10.57600  116.72600   10.59800
      C    C384    11.35200  115.67000    9.94900
      C    C385    10.60100  115.02200    8.81000
      O    O386    11.13000  114.89900    7.70300
      C    C387    11.79800  114.56000   10.91600
      O    O388    12.64200  115.11400   11.93400
      C    C389    12.57600  113.48300   10.14400
      N    N390     9.37300  114.59300    9.05800
      C    C391     8.64200  113.91900    7.99900
      C    C392     8.45100  114.81800    6.77400
      O    O393     8.46600  114.35300    5.63500
      C    C394     7.28200  113.39700    8.49100
      C    C395     6.66900  112.38100    7.52500
      O    O396     7.37500  111.42900    7.12200
      O    O397     5.48900  112.52700    7.14900
      N    N398     8.24400  116.10800    6.99100
      C    C399     7.82600  116.94200    5.86500
      C    C400     9.00300  117.55200    5.11700
      O    O401     8.90300  117.82100    3.91800
      C    C402     6.80600  118.00800    6.29400
      C    C403     5.40500  117.46100    6.59200
      C    C404     4.46200  118.60500    6.83500
      C    C405     4.89000  116.55300    5.46800
      N    N406    10.11200  117.75800    5.82600
      C    C407    11.30300  118.34700    5.23000
      C    C408    11.41400  119.86500    5.36400
      O    O409    11.94300  120.52900    4.45500
      N    N410    10.92800  120.41800    6.48600
      C    C411    10.95300  121.87300    6.72400
      C    C412    11.32100  122.15700    8.17100
      O    O413    11.30100  121.25300    9.01000
      C    C414     9.59200  122.52900    6.41100
      C    C415     8.58200  122.24000    7.54400
      C    C416     9.06600  122.08000    5.03400
      C    C417     7.09800  122.24100    7.10800
      N    N418    11.66300  123.40400    8.47900
      C    C419    12.05600  123.73800    9.84700
      C    C420    10.85300  123.76500   10.77400
      O    O421     9.69600  123.96500   10.34400
      C    C422    12.79500  125.07400    9.90400
      N    N423    11.12800  123.59400   12.05700
      C    C424    10.06500  123.39400   12.99400
      C    C425     9.27600  124.69600   13.03100
      O    O426     8.05200  124.68500   12.92400
      C    C427    10.62200  123.00700   14.37200
      C    C428    10.26200  123.97600   15.49700
      C    C429     9.29800  123.33900   16.48100
      O    O430     8.61700  124.06900   17.26500
      O    O431     9.23100  122.08100   16.45700
      N    N432     9.97500  125.81800   13.14700
      C    C433     9.33800  127.14400   13.09300
      C    C434     8.38100  127.26500   11.91600
      O    O435     7.31100  127.85400   12.02900
      N    N436     8.76300  126.69800   10.78300
      C    C437     7.86400  126.62500    9.65100
      C    C438     6.68400  125.65200    9.83600
      O    O439     5.65300  125.80600    9.17600
      C    C440     8.62600  126.26200    8.39600
      O    O441     9.74000  127.13900    8.30300
      C    C442     7.75400  126.42500    7.15200
      N    N443     6.82600  124.65700   10.71000
      C    C444     5.70200  123.77300   10.96700
      C    C445     4.68700  124.58000   11.76400
      O    O446     3.48300  124.53000   11.50000
      C    C447     6.11000  122.49500   11.73800
      C    C448     4.89800  121.85800   12.39800
      C    C449     6.78900  121.50800   10.78400
      N    N450     5.18400  125.36700   12.70600
      C    C451     4.30000  126.15500   13.51400
      C    C452     3.49300  127.14600   12.66900
      O    O453     2.25800  127.16000   12.71300
      C    C454     5.08700  126.88000   14.59300
      C    C455     5.67000  125.92700   15.59300
      C    C456     6.37600  126.63200   16.72800
      C    C457     6.97500  125.57300   17.66600
      N    N458     7.61200  126.16900   18.87400
      N    N459     4.18600  127.96900   11.89400
      C    C460     3.49600  128.95800   11.10600
      C    C461     2.59300  128.26100   10.08000
      O    O462     1.44600  128.65900    9.89300
      C    C463     4.48100  129.94600   10.46600
      O    O464     5.24300  129.35600    9.43300
      N    N465     3.07000  127.19500    9.45400
      C    C466     2.20900  126.48700    8.50300
      C    C467     0.87900  126.00900    9.13200
      O    O468    -0.19400  126.08500    8.50800
      C    C469     2.94800  125.33700    7.81600
      C    C470     2.22100  124.82900    6.58600
      C    C471     3.05300  123.89000    5.74800
      N    N472     4.22700  124.55600    5.19800
      C    C473     5.08200  123.99100    4.34900
      N    N474     4.91500  122.73600    3.96500
      N    N475     6.11500  124.67600    3.89200
      N    N476     0.95500  125.52200   10.36400
      C    C477    -0.23700  125.13100   11.12000
      C    C478    -1.14800  126.31600   11.42800
      O    O479    -2.37800  126.18900   11.43600
      C    C480     0.16400  124.52300   12.46300
      C    C481     0.44200  123.03300   12.48200
      C    C482     1.30800  122.63600   13.71000
      C    C483    -0.88800  122.32500   12.50900
      N    N484    -0.52600  127.43400   11.76600
      C    C485    -1.24200  128.66200   12.03800
      C    C486    -2.11900  129.03500   10.82600
      O    O487    -3.30900  129.34800   10.97700
      C    C488    -0.21400  129.75000   12.33200
      C    C489    -0.77100  131.14000   12.38900
      N    N490    -0.72500  132.00700   11.31600
      C    C491    -1.33600  131.83100   13.40200
      C    C492    -1.26300  133.16000   11.66000
      N    N493    -1.64100  133.07800   12.92100
      N    N494    -1.53400  128.98600    9.63200
      C    C495    -2.25500  129.34100    8.40700
      C    C496    -3.24400  128.26100    8.03700
      O    O497    -4.33500  128.56400    7.54600
      C    C498    -1.29800  129.62700    7.23600
      C    C499    -0.48100  130.87400    7.47500
      C    C500    -1.08200  132.11500    7.48800
      C    C501     0.89200  130.80000    7.71500
      C    C502    -0.36800  133.25000    7.73400
      C    C503     1.65100  131.94100    7.95400
      C    C504     1.00000  133.15900    7.96700
      O    O505     1.69900  134.29800    8.21000
      N    N506    -2.86600  127.00700    8.28600
      C    C507    -3.70700  125.86000    7.94300
      C    C508    -5.02800  125.91500    8.72000
      O    O509    -6.10300  125.73800    8.15500
      C    C510    -2.97700  124.55200    8.23800
      N    N511    -4.93500  126.19100   10.01100
      C    C512    -6.10900  126.23000   10.83600
      C    C513    -6.96200  127.46600   10.53000
      O    O514    -8.19500  127.38000   10.43700
      C    C515    -5.75900  126.15900   12.32400
      C    C516    -7.00500  126.43500   13.15600
      C    C517    -5.19000  124.78000   12.65200
      N    N518    -6.31400  128.60700   10.34400
      C    C519    -7.05100  129.81200    9.95700
      C    C520    -7.74800  129.63800    8.60300
      O    O521    -8.90300  130.05100    8.45000
      C    C522    -6.19000  131.07800   10.10100
      C    C523    -5.61100  131.11800   11.51000
      C    C524    -5.04000  132.45200   11.95900
      N    N525    -6.06500  133.23400   12.67100
      C    C526    -6.12400  133.42400   13.98700
      N    N527    -5.20600  132.91600   14.80000
      N    N528    -7.11100  134.15000   14.48900
      N    N529    -7.11200  128.95100    7.65900
      C    C530    -7.77500  128.70200    6.36500
      C    C531    -8.99600  127.79600    6.52200
      O    O532   -10.05000  128.03300    5.91500
      C    C533    -6.81400  128.10300    5.35100
      N    N534    -8.81800  126.74300    7.31900
      C    C535    -9.84800  125.77400    7.61400
      C    C536   -11.01800  126.54100    8.17700
      O    O537   -12.14200  126.32700    7.78200
      C    C538    -9.36200  124.79800    8.70200
      C    C539    -9.80000  123.32300    8.70500
      C    C540    -9.90300  122.78900   10.13300
      C    C541   -11.07000  123.00300    7.92200
      N    N542   -10.74000  127.43200    9.11700
      C    C543   -11.78500  128.16100    9.78900
      C    C544   -12.63200  128.96300    8.79100
      O    O545   -13.87100  128.89400    8.79900
      C    C546   -11.17300  129.10300   10.82400
      C    C547   -12.13300  129.39400   11.92900
      C    C548   -11.68900  130.51500   12.82500
      N    N549   -12.68600  130.73800   13.85700
      C    C550   -12.92500  131.92100   14.40500
      N    N551   -12.24100  132.98600   13.99400
      N    N552   -13.85800  132.03500   15.35200
      N    N553   -11.94800  129.71900    7.94700
      C    C554   -12.57100  130.45900    6.86500
      C    C555   -13.56100  129.61900    6.12400
      O    O556   -14.67900  130.04500    5.91700
      C    C557   -11.52500  130.94100    5.86400
      C    C558   -11.20400  132.42400    5.86000
      C    C559   -11.84400  133.19600    7.03100
      C    C560    -9.68500  132.64200    5.79300
      N    N561   -13.15100  128.43900    5.68400
      C    C562   -14.08100  127.57400    4.96100
      C    C563   -15.23400  127.14700    5.85100
      O    O564   -16.37900  127.13900    5.41900
      C    C565   -13.38800  126.32000    4.52200
      O    O566   -12.14300  126.68700    3.96400
      C    C567   -14.20300  125.57300    3.49400
      N    N568   -14.91900  126.78200    7.08600
      C    C569   -15.92600  126.32100    8.02600
      C    C570   -17.01300  127.41200    8.21700
      O    O571   -18.20600  127.11300    8.20300
      C    C572   -15.25000  125.94300    9.36600
      C    C573   -14.94000  124.47000    9.73300
      C    C574   -15.17000  123.42900    8.66200
      C    C575   -13.60000  124.25000   10.43000
      N    N576   -16.59400  128.66900    8.37800
      C    C577   -17.52800  129.79800    8.48200
      C    C578   -18.31800  129.92200    7.18200
      O    O579   -19.53500  129.96200    7.19000
      C    C580   -16.78300  131.10300    8.76100
      C    C581   -16.14500  131.19600   10.16600
      C    C582   -15.19500  132.39100   10.35200
      O    O583   -15.08700  132.95400   11.44300
      N    N584   -14.50000  132.76400    9.30600
      N    N585   -17.64100  129.94800    6.04700
      C    C586   -18.36800  130.11500    4.80000
      C    C587   -19.40600  129.01100    4.72700
      O    O588   -20.49200  129.19300    4.20100
      C    C589   -17.43700  130.03600    3.57500
      C    C590   -18.12500  130.44100    2.28000
      C    C591   -17.19100  130.56700    1.05900
      O    O592   -15.93600  130.51600    1.18400
      O    O593   -17.73000  130.73800   -0.05500
      N    N594   -19.05400  127.84600    5.24400
      C    C595   -19.86800  126.65100    5.03800
      C    C596   -21.06700  126.60900    5.98500
      O    O597   -21.97400  125.83600    5.78600
      C    C598   -18.99900  125.41000    5.21600
      C    C599   -18.75100  124.50000    4.01500
      C    C600   -19.07500  125.16100    2.69200
      C    C601   -17.33700  123.87900    4.02900
      N    N602   -21.06200  127.46600    6.99500
      C    C603   -22.12000  127.52200    7.96700
      C    C604   -21.86200  126.68100    9.22600
      O    O605   -22.72300  126.58600   10.10000
      N    N606   -20.67600  126.10000    9.35800
      C    C607   -20.44300  125.19400   10.46800
      C    C608   -20.11700  125.91700   11.77300
      O    O609   -20.52600  125.48900   12.83700
      C    C610   -19.36500  124.15400   10.13800
      C    C611   -19.22200  123.17400   11.27800
      C    C612   -19.71600  123.42200    8.85000
      N    N613   -19.38300  127.01400   11.69700
      C    C614   -19.05700  127.78100   12.88000
      C    C615   -19.31400  129.25800   12.56300
      O    O616   -19.30400  129.64400   11.41500
      C    C617   -17.56500  127.56100   13.31700
      O    O618   -17.29000  128.29100   14.52300
      C    C619   -16.58800  128.03500   12.26500
      N    N620   -19.58200  130.06300   13.57700
      C    C621   -19.65200  131.50600   13.39700
      C    C622   -18.25300  132.09400   13.62000
      O    O623   -17.54700  132.44900   12.67200
      C    C624   -20.62200  132.17200   14.38500
      C    C625   -20.54100  133.70500   14.27700
      C    C626   -20.94600  134.46000   15.54000
      N    N627   -22.39200  134.43300   15.62700
      C    C628   -23.17500  135.49900   15.54300
      N    N629   -22.64800  136.70800   15.41500
      N    N630   -24.49100  135.33900   15.60800
