# CIF file generated by openbabel 2.3.2, see http://openbabel.sf.net
data_I
_chemical_name_common '../proteins/pdb/3I4O.pdb'
_cell_length_a 73.95
_cell_length_b 76.54
_cell_length_c 28.03
_cell_angle_alpha 90
_cell_angle_beta 90
_cell_angle_gamma 90
_space_group_name_H-M_alt 'P 21 21 2'
_space_group_name_Hall 'P 2 2ab'
loop_
    _symmetry_equiv_pos_as_xyz
    'x,y,z'
    '-x,-y,z'
    '1/2-x,1/2+y,-z'
    '1/2+x,1/2-y,-z'
loop_
    _atom_site_type_symbol
    _atom_site_label
    _atom_site_Cartn_x
    _atom_site_Cartn_y
    _atom_site_Cartn_z
      N    N1    17.88700   23.95100   24.73900
      C    C2    19.24400   23.33200   24.83800
      C    C3    19.33700   22.09900   25.73000
      O    O4    20.43500   21.54400   25.87900
      N    N5    18.22700   21.66700   26.34700
      C    C6    18.23100   20.42900   27.20700
      C    C7    18.65400   19.22100   26.40500
      O    O8    18.38600   19.11100   25.19900
      C    C9    16.86900   20.17200   27.80500
      N    N10    19.32700   18.30700   27.08900
      C    C11    19.85800   17.18000   26.38300
      C    C12    19.91700   17.14500   26.46400
      C    C13    19.02500   15.92400   26.64500
      O    O14    19.04800   15.03500   25.83200
      C    C15    21.38600   17.02000   26.61600
      C    C16    21.35200   16.88600   27.00600
      C    C17    22.03700   16.08600   25.61000
      C    C18    22.20500   18.14000   26.81500
      C    C19    21.68200   16.62600   28.05100
      C    C20    21.99400   15.67300   26.33100
      C    C21    23.04000   16.80200   24.73600
      C    C22    22.26100   18.56900   25.34600
      N    N23    18.26800   15.85700   27.74400
      C    C24    17.34400   14.76500   28.00000
      C    C25    15.95700   15.39600   27.98200
      O    O26    15.66800   16.31400   28.73800
      C    C27    17.60700   14.12100   29.37100
      C    C28    16.59400   13.00600   29.68600
      C    C29    16.88100   12.36100   31.03100
      O    O30    16.34600   12.82900   32.08200
      O    O31    17.69000   11.41500   31.06100
      N    N32    15.13200   14.96100   27.04300
      C    C33    13.87000   15.64500   26.76700
      C    C34    12.75200   14.63800   26.43600
      O    O35    13.01200   13.61200   25.81600
      C    C36    14.00100   16.60600   25.54300
      C    C37    12.78600   17.57700   25.46500
      C    C38    15.26400   17.45100   25.62500
      N    N39    11.53500   14.90700   26.87300
      N    N40    11.53800   14.94000   26.88800
      C    C41    10.44500   14.03700   26.49400
      C    C42    10.34700   14.15800   26.58100
      C    C43     9.79500   14.51500   25.21000
      C    C44     9.81600   14.52900   25.19100
      O    O45     9.77500   15.69900   24.89100
      O    O46     9.92400   15.67600   24.76100
      C    C47     9.40600   13.97300   27.60600
      C    C48     9.26900   14.47200   27.63800
      C    C49    10.00000   13.45200   28.86100
      C    C50     7.99900   13.64500   27.55100
      C    C51     8.99500   12.84500   29.78100
      C    C52     7.03000   13.99200   28.67900
      O    O53     7.77200   13.00000   29.56600
      O    O54     7.47400   13.98100   29.84200
      O    O55     9.47300   12.21200   30.74500
      O    O56     5.83500   14.27100   28.40500
      N    N57     9.20000   13.57400   24.50300
      C    C58     8.53000   13.90700   23.24100
      C    C59     7.46700   12.89700   22.89200
      O    O60     7.19400   11.94200   23.63800
      N    N61     6.87700   13.09800   21.72300
      C    C62     5.86500   12.19800   21.20700
      C    C63     6.33700   11.64000   19.85400
      O    O64     6.91700   12.36700   19.02200
      C    C65     4.49800   12.91100   21.03400
      C    C66     4.55100   14.16300   20.15700
      C    C67     3.13500   14.74200   19.98900
      N    N68     3.14000   16.00800   19.31100
      C    C69     3.31300   16.16500   17.99000
      N    N70     3.45300   15.09600   17.17800
      N    N71     3.34200   17.40200   17.50300
      N    N72     6.14000   10.34300   19.65100
      C    C73     6.54700    9.74200   18.39200
      C    C74     5.59800   10.15400   17.28400
      O    O75     4.36700   10.08200   17.41300
      C    C76     6.57400    8.20700   18.53400
      C    C77     6.95600    7.56300   17.20800
      C    C78     7.53000    7.80900   19.68100
      N    N79     6.19400   10.58600   16.18700
      C    C80     5.41700   11.00200   15.00300
      C    C81     5.28300    9.84900   14.01600
      O    O82     4.16200    9.43600   13.66100
      C    C83     6.03400   12.22500   14.33500
      C    C84     5.27600   12.60600   13.06400
      C    C85     6.10500   13.39600   15.29500
      N    N86     6.39300    9.27000   13.60400
      C    C87     6.30200    8.15600   12.66300
      C    C88     7.60500    7.37700   12.63000
      O    O89     8.67400    7.91100   12.90400
      C    C90     5.94700    8.66600   11.28800
      C    C91     6.96500    9.63100   10.82800
      C    C92     6.74500   10.19400    9.44800
      O    O93     6.33900    9.46000    8.50900
      O    O94     7.04500   11.38700    9.31300
      N    N95     7.50600    6.09700   12.28900
      C    C96     8.69300    5.27500   12.09600
      C    C97     9.31000    5.54300   10.73900
      O    O98     8.59800    5.74500    9.75900
      C    C99     8.15900    3.84400   12.17500
      C    C100     6.76600    3.97400   11.60800
      C    C101     6.26200    5.31900   12.09100
      N    N102    10.62500    5.45700   10.71400
      C    C103    11.40500    5.60400    9.49900
      C    C104    12.24300    4.35900    9.34000
      O    O105    12.30800    3.49800   10.22900
      C    C106    12.36100    6.79700    9.61200
      C    C107    11.74200    8.08800   10.07200
      C    C108    12.80900    9.08700   10.42800
      C    C109    10.77100    8.61800    9.11600
      N    N110    12.91800    4.22900    8.19000
      C    C111    13.80100    3.07000    8.06500
      C    C112    14.97400    3.09100    9.04500
      O    O113    15.20200    4.09700    9.74700
      C    C114    14.29600    3.15000    6.62500
      C    C115    13.26400    3.96100    5.93000
      C    C116    12.81200    4.99800    6.94100
      N    N117    15.70500    1.97100    9.12300
      C    C118    16.87400    1.88000    9.96700
      C    C119    16.57000    2.12400   11.43900
      O    O120    17.37700    2.63600   12.20500
      C    C121    17.99300    2.76400    9.44800
      C    C122    18.60100    2.20100    8.20600
      O    O123    19.17300    1.09000    8.24600
      N    N124    18.45100    2.90300    7.09300
      N    N125    15.37600    1.70500   11.81800
      C    C126    14.93400    1.72300   13.21000
      C    C127    14.96700    3.12000   13.80900
      O    O128    15.12400    3.32900   14.99000
      C    C129    15.72100    0.73400   14.04200
      N    N130    14.76400    4.10200   12.95100
      C    C131    14.67000    5.47700   13.40600
      C    C132    13.21900    5.93100   13.54700
      O    O133    12.32400    5.36400   12.89600
      C    C134    15.40200    6.39400   12.42100
      C    C135    16.90400    6.09800   12.32600
      S    S136    17.83600    6.41900   13.82000
      C    C137    17.88300    8.23600   13.82100
      N    N138    12.99300    6.94100   14.36400
      C    C139    11.67200    7.52900   14.51900
      C    C140    11.76200    9.02500   14.51700
      O    O141    12.64600    9.60800   15.13800
      C    C142    11.05200    7.10200   15.88200
      C    C143    10.82800    5.62200   15.98900
      C    C144     9.58600    5.08300   15.65000
      C    C145    11.87000    4.75300   16.32600
      C    C146     9.39500    3.69800   15.72700
      C    C147    11.67500    3.37600   16.40700
      C    C148    10.40800    2.87400   16.09300
      N    N149    10.81400    9.67200   13.83300
      C    C150    10.64900   11.10800   13.94900
      C    C151     9.84600   11.37200   15.22600
      O    O152     8.82000   10.73100   15.45100
      C    C153     9.88100   11.63900   12.74100
      C    C154     9.77400   13.15400   12.71300
      C    C155     9.15800   13.64000   11.40000
      N    N156     9.49400   12.83600   10.22500
      C    C157    10.58300   12.98300    9.46700
      N    N158    11.49400   13.90100    9.74900
      N    N159    10.74000   12.22400    8.40500
      N    N160    10.33500   12.29200   16.04300
      C    C161     9.74400   12.63000   17.35500
      C    C162     9.58500   14.13200   17.43300
      O    O163    10.46300   14.87600   17.00200
      C    C164    10.65200   12.08900   18.47200
      C    C165    10.57700   10.53200   18.45100
      C    C166    10.27900   12.64200   19.83400
      C    C167    11.76600    9.91500   19.10500
      N    N168     8.49800   14.59200   18.05000
      C    C169     8.35800   16.01300   18.39600
      C    C170     8.62800   16.11600   19.89200
      O    O171     7.92200   15.49900   20.69100
      C    C172     6.93400   16.52600   18.10500
      C    C173     6.59700   17.89300   18.73400
      C    C174     7.35800   19.04500   18.20800
      O    O175     8.03000   18.93200   17.16900
      O    O176     7.27300   20.13500   18.85400
      N    N177     9.61900   16.93000   20.27700
      C    C178     9.94300   17.10100   21.70200
      C    C179     9.09200   18.19600   22.30800
      O    O180     8.62700   19.09900   21.61400
      C    C181    11.41300   17.49300   21.87000
      C    C182    12.40700   16.45100   21.37000
      C    C183    13.79800   17.05300   21.45500
      C    C184    12.26700   15.15600   22.11600
      N    N185     8.95400   18.12900   23.62600
      N    N186     8.93900   18.13900   23.63100
      C    C187     8.14800   19.10400   24.32900
      C    C188     8.16300   19.13900   24.37300
      C    C189     8.81400   20.45400   24.52600
      C    C190     8.72700   20.53800   24.32600
      O    O191     8.23000   21.31900   25.18900
      O    O192     8.02500   21.51200   24.66600
      C    C193     7.66600   18.54500   25.66500
      C    C194     8.05400   18.75700   25.83700
      C    C195     8.77600   18.34800   26.71900
      C    C196     7.16900   17.58200   26.12100
      C    C197     8.20400   18.33100   28.14100
      C    C198     6.90300   17.42500   27.61500
      O    O199     9.00900   18.21200   29.07500
      O    O200     7.89300   17.43900   28.40000
      O    O201     6.95800   18.46000   28.31900
      O    O202     5.71200   17.28500   28.00600
      N    N203     9.98000   20.65300   23.91500
      C    C204    10.56500   21.97500   23.74900
      C    C205    10.33600   22.56900   22.36900
      O    O206    10.88100   23.65800   22.04700
      C    C207    12.04500   21.94900   24.10800
      C    C208    12.86300   21.11000   23.14700
      O    O209    12.34100   20.61500   22.11800
      N    N210    14.17000   20.95200   23.44800
      N    N211     9.50600   21.90300   21.56400
      C    C212     9.15200   22.46200   20.25600
      C    C213    10.02400   22.06700   19.10400
      O    O214     9.83700   22.60000   17.97200
      N    N215    10.95200   21.14400   19.34400
      C    C216    11.91000   20.77000   18.30600
      C    C217    11.68100   19.36100   17.80400
      O    O218    11.32400   18.50100   18.58000
      C    C219    13.32800   20.86200   18.89100
      C    C220    13.74600   22.26200   19.24400
      N    N221    13.43300   23.34300   18.45300
      C    C222    14.44800   22.75500   20.29200
      C    C223    13.90400   24.44700   19.00300
      N    N224    14.52600   24.11700   20.12000
      N    N225    11.86200   19.12700   16.49700
      C    C226    11.81000   17.77600   15.92100
      C    C227    13.12000   17.08100   15.98100
      O    O228    14.14500   17.68600   15.62200
      C    C229    11.47500   17.87500   14.44600
      C    C230    10.05500   18.18200   14.21100
      C    C231     9.16300   16.95500   14.54300
      C    C232     7.70600   17.16800   14.17200
      N    N233     7.29600   18.53800   14.51600
      N    N234    13.09400   15.78200   16.21600
      N    N235    13.13500   15.86600   16.54400
      C    C236    14.32600   15.03700   16.19700
      C    C237    14.35400   15.05500   16.74600
      C    C238    14.10600   13.67000   15.57700
      C    C239    14.09000   13.72000   16.09300
      O    O240    12.96300   13.19600   15.43700
      O    O241    12.96400   13.20900   16.11300
      C    C242    14.89900   14.88300   17.59000
      C    C243    14.72500   14.77700   18.25600
      C    C244    15.01900   16.24100   18.26800
      C    C245    13.58600   14.06500   18.98100
      C    C246    14.07200   13.91900   18.44000
      C    C247    16.05600   13.94100   18.37900
      N    N248    15.19700   13.02400   15.20600
      N    N249    15.14800   13.12300   15.55400
      C    C250    15.13100   11.63100   14.77800
      C    C251    15.08800   11.79400   14.94500
      C    C252    15.91300   10.81800   15.78500
      C    C253    15.92500   10.81600   15.78500
      O    O254    17.04400   11.21600   16.16300
      O    O255    17.11300   11.07300   16.01600
      C    C256    15.76300   11.42100   13.39600
      C    C257    15.63600   11.86400   13.51900
      C    C258    15.23300   12.33200   12.29400
      C    C259    15.61600   10.56200   12.71900
      C    C260    15.80600   11.87700   10.94800
      C    C261    14.24100   10.27500   12.22600
      C    C262    13.72500   12.44500   12.17200
      C    C263    16.56000   10.66000   11.52700
      N    N264    15.33400    9.71000   16.24600
      C    C265    16.01500    8.87400   17.26100
      C    C266    15.78600    7.41500   17.05200
      O    O267    14.79200    7.05600   16.45900
      C    C268    15.53300    9.31000   18.66400
      N    N269    16.71000    6.54800   17.52500
      C    C270    16.41400    5.08000   17.58400
      C    C271    16.30700    4.60600   18.99200
      O    O272    16.81500    5.30800   19.89200
      C    C273    17.52800    4.29700   16.92900
      C    C274    18.84200    4.54600   17.58800
      N    N275    19.32700    3.76300   18.63000
      C    C276    19.70000    5.58300   17.47300
      C    C277    20.47200    4.26300   19.06000
      N    N278    20.70300    5.38200   18.39400
      N    N279    15.74200    3.40100   19.23800
      C    C280    15.61900    2.92400   20.61500
      C    C281    16.97600    2.45500   21.04000
      O    O282    17.81900    1.97600   20.24500
      C    C283    14.55100    1.81300   20.90100
      C    C284    14.87400    0.51900   20.22200
      C    C285    13.21000    2.31100   20.59500
      C    C286    13.81800   -0.58600   20.53100
      N    N287    17.17100    2.52100   22.32900
      C    C288    18.41800    2.11900   22.92400
      C    C289    18.59900    0.59900   22.86000
      O    O290    17.63600   -0.15500   22.66700
      C    C291    18.40300    2.51900   24.38400
      O    O292    17.47200    1.71800   25.09300
      N    N293    19.83400    0.15000   23.08900
      C    C294    20.07500   -1.28000   23.13900
      C    C295    19.26700   -1.98600   24.21800
      O    O296    18.77300   -3.10100   24.00300
      N    N297    19.09900   -1.35900   25.37900
      C    C298    18.31700   -1.95700   26.45200
      C    C299    18.31600   -1.98800   26.43300
      C    C300    16.86100   -2.12800   25.99500
      O    O301    16.23300   -3.16200   26.24400
      C    C302    18.41600   -1.09300   27.71800
      C    C303    18.42100   -1.22000   27.75000
      C    C304    17.64900   -1.56500   28.93400
      C    C305    19.78300   -1.33400   28.42800
      C    C306    17.77800   -0.54500   30.07300
      C    C307    19.63200   -1.14100   29.92200
      C    C308    16.78800   -0.85600   31.20000
      C    C309    20.90900   -1.52200   30.65100
      N    N310    16.81500    0.13000   32.33400
      N    N311    21.84000   -0.37200   30.75100
      N    N312    16.32200   -1.12500   25.32400
      N    N313    16.33500   -1.10000   25.32800
      C    C314    14.94300   -1.26500   24.87200
      C    C315    14.96100   -1.14100   24.81200
      C    C316    14.83300   -2.33100   23.81400
      C    C317    14.79600   -2.22600   23.75500
      O    O318    13.83600   -3.05300   23.78300
      O    O319    13.74000   -2.86000   23.67700
      C    C320    14.44600    0.05400   24.33900
      C    C321    14.55400    0.21200   24.22300
      C    C322    14.20200    1.05900   25.43700
      C    C323    14.44500    1.35300   25.22600
      S    S324    13.67900    2.64500   24.80200
      S    S325    12.84000    1.52600   26.03600
      C    C326    11.93100    2.30000   24.53300
      C    C327    11.90900    2.37400   24.76800
      N    N328    15.82600   -2.43100   22.93400
      C    C329    15.78600   -3.46800   21.88400
      C    C330    15.80700   -4.82600   22.53900
      O    O331    15.06000   -5.72900   22.12800
      C    C332    17.00800   -3.37600   21.01500
      C    C333    16.97500   -2.27100   20.03800
      C    C334    17.91400   -2.57800   18.86500
      N    N335    19.34500   -2.54100   19.17200
      C    C336    20.03800   -1.41600   19.31600
      N    N337    19.41200   -0.24200   19.23000
      N    N338    21.34300   -1.45000   19.56800
      N    N339    16.66200   -4.96900   23.54900
      C    C340    16.79000   -6.22600   24.29800
      C    C341    15.51300   -6.64200   24.99200
      O    O342    15.25700   -7.84800   25.17900
      C    C343    17.88900   -6.09200   25.35400
      C    C344    19.27100   -6.06600   24.76200
      C    C345    20.30800   -5.68800   25.79200
      O    O346    20.09100   -5.85300   27.01300
      N    N347    21.43600   -5.16100   25.32400
      N    N348    14.70200   -5.65800   25.37100
      N    N349    14.70100   -5.66500   25.38800
      C    C350    13.45000   -5.91200   26.04900
      C    C351    13.43600   -5.96000   26.03800
      C    C352    12.26800   -5.81500   25.09300
      C    C353    12.26100   -5.83100   25.09000
      O    O354    11.11200   -5.86200   25.53600
      O    O355    11.10800   -5.86500   25.53500
      C    C356    13.26400   -4.89500   27.16000
      C    C357    13.20900   -5.03500   27.21800
      C    C358    14.08700   -5.16900   28.37500
      C    C359    14.24200   -5.16200   28.28600
      N    N360    15.36000   -4.66400   28.53400
      N    N361    14.47600   -4.16500   29.20800
      C    C362    13.81700   -5.88400   29.49500
      C    C363    15.11100   -6.15800   28.57300
      C    C364    15.83900   -5.05700   29.70200
      C    C365    15.43800   -4.54800   30.02800
      N    N366    14.91800   -5.78800   30.30900
      N    N367    15.84600   -5.75200   29.66200
      N    N368    12.54600   -5.67000   23.80300
      C    C369    11.46600   -5.70600   22.75900
      C    C370    10.34500   -4.70400   23.03200
      O    O371     9.14900   -5.00900   22.95800
      C    C372    10.89600   -7.13700   22.61600
      C    C373    11.96500   -8.12000   22.22200
      C    C374    12.44800   -8.17400   20.90200
      C    C375    12.52900   -8.93900   23.16900
      C    C376    13.44000   -9.05900   20.53100
      C    C377    13.53200   -9.82700   22.81600
      C    C378    13.99200   -9.85900   21.49200
      O    O379    14.97500  -10.75100   21.12200
      N    N380    10.73900   -3.46800   23.32900
      C    C381     9.79100   -2.39800   23.60900
      C    C382     9.24700   -1.88700   22.29400
      O    O383    10.00500   -1.51000   21.37200
      C    C384    10.45200   -1.23600   24.37100
      C    C385    11.10100   -1.74600   25.65300
      C    C386     9.41700   -0.15600   24.62100
      C    C387    10.16000   -2.48700   26.66300
      N    N388     7.94100   -1.97700   22.14600
      C    C389     7.31100   -1.48500   20.92200
      C    C390     7.18600    0.02700   21.00000
      O    O391     6.85000    0.57600   22.05100
      C    C392     5.92100   -2.09100   20.77500
      C    C393     5.19200   -1.68200   19.51100
      C    C394     3.84400   -2.37500   19.49000
      N    N395     2.99500   -1.83800   20.53800
      C    C396     1.81700   -2.34100   20.86400
      N    N397     1.33400   -3.37500   20.15700
      N    N398     1.13200   -1.78400   21.87700
      N    N399     7.49000    0.67600   19.89400
      N    N400     7.46200    0.68700   19.88500
      C    C401     7.29600    2.10400   19.74000
      C    C402     7.26500    2.12500   19.76800
      C    C403     6.25200    2.27700   18.64800
      C    C404     6.35000    2.46100   18.60100
      O    O405     6.39100    1.68800   17.56200
      O    O406     6.66900    2.19800   17.43300
      C    C407     8.62000    2.80200   19.30500
      C    C408     8.58100    2.86900   19.55400
      C    C409     9.73300    2.53900   20.32500
      C    C410     9.53800    2.61800   20.72300
      C    C411     8.38100    4.30300   19.10900
      C    C412     8.29900    4.35000   19.41400
      C    C413     9.44300    3.09400   21.72000
      C    C414    10.90600    3.13600   20.45000
      N    N415     5.24200    3.11100   18.93300
      C    C416     4.20600    3.45700   17.94200
      C    C417     3.98600    4.94600   17.89200
      O    O418     4.22400    5.65200   18.88700
      C    C419     2.87900    2.86100   18.39100
      C    C420     2.81200    1.33900   18.29400
      C    C421     1.44500    0.91800   18.74300
      C    C422     3.03300    0.88900   16.84800
      N    N423     3.46000    5.43700   16.76600
      C    C424     3.05100    6.83900   16.71600
      C    C425     2.15800    7.22900   17.87400
      O    O426     1.29400    6.45300   18.26600
      C    C427     2.29000    6.91400   15.39000
      C    C428     2.98100    5.88600   14.52500
      C    C429     3.19400    4.72500   15.48600
      N    N430     2.42900    8.41500   18.42800
      C    C431     1.70000    8.97500   19.57700
      C    C432     2.22000    8.48600   20.90100
      O    O433     1.79300    9.00400   21.93400
      C    C434     0.15800    8.84100   19.47900
      C    C435    -0.41700    9.37600   18.16800
      C    C436    -0.02000   10.78600   17.82500
      O    O437    -0.03700   11.63200   18.70400
      O    O438     0.25500   11.09200   16.63600
      N    N439     3.18900    7.56200   20.91100
      C    C440     3.77400    7.17800   22.21200
      C    C441     4.53700    8.36300   22.81700
      O    O442     5.10900    9.18000   22.09900
      C    C443     4.75400    6.02300   22.01700
      C    C444     4.08200    4.66500   21.87600
      O    O445     2.84200    4.57200   22.04900
      O    O446     4.83600    3.66300   21.64800
      N    N447     4.60600    8.39700   24.14100
      C    C448     5.40700    9.37800   24.85900
      C    C449     6.74000    8.73000   25.20000
      O    O450     6.78700    7.60700   25.74100
      C    C451     4.67600    9.74800   26.14800
      C    C452     5.31300   10.86400   26.92700
      C    C453     4.41800   11.12700   28.19000
      N    N454     5.09700   11.85400   29.26000
      C    C455     4.78500   11.76400   30.55600
      N    N456     3.78300   10.98900   30.98600
      N    N457     5.47300   12.48100   31.44100
      N    N458     7.83200    9.41300   24.85000
      C    C459     9.16900    8.83700   25.04300
      C    C460    10.10900    9.81000   25.72800
      O    O461     9.85900   11.01000   25.74000
      C    C462     9.79500    8.43000   23.70100
      C    C463     9.01700    7.25100   23.09200
      C    C464     9.82300    9.59400   22.72700
      N    N465    11.17800    9.26400   26.30600
      C    C466    12.29200   10.10100   26.77900
      C    C467    13.43600    9.87800   25.80800
      O    O468    13.75600    8.74200   25.48900
      C    C469    12.75700    9.68100   28.21300
      C    C470    13.92500   10.52300   28.65800
      C    C471    11.57400    9.80900   29.20000
      N    N472    14.03800   10.98400   25.36900
      C    C473    15.12200   10.97300   24.38100
      C    C474    16.38700   11.58000   25.00700
      O    O475    16.29400   12.61400   25.66300
      C    C476    14.69000   11.75200   23.10300
      C    C477    15.79200   11.72100   22.07700
      C    C478    13.43900   11.09600   22.53100
      N    N479    17.53700   10.93200   24.79600
      C    C480    18.83100   11.52200   25.12900
      C    C481    19.42400   12.03400   23.81200
      O    O482    19.61900   11.25000   22.86200
      C    C483    19.77700   10.47700   25.71700
      C    C484    19.22100    9.72700   26.94100
      C    C485    18.99700   10.58100   28.13500
      O    O486    19.54000   11.70300   28.22900
      O    O487    18.27000   10.09200   29.03900
      N    N488    19.61000   13.34600   23.70600
      C    C489    20.08200   13.91900   22.44000
      C    C490    21.58200   13.76500   22.26700
      O    O491    22.33900   13.61600   23.23300
      C    C492    19.70200   15.37200   22.36000
      C    C493    18.18400   15.63500   22.47000
      C    C494    17.87800   17.10900   22.52800
      C    C495    17.46300   14.92200   21.27900
      N    N496    22.01300   13.75700   21.01800
      C    C497    23.43400   13.66200   20.74000
      C    C498    24.14700   14.99400   21.04800
      O    O499    23.67500   16.06000   20.66100
      C    C500    23.63900   13.37100   19.24700
      O    O501    25.03400   13.54400   18.95600
      N    N502    25.33800   14.90100   21.68600
      N    N503    25.30100   14.94300   21.73400
      C    C504    26.09600   16.11700   21.89800
      C    C505    26.04000   16.18000   21.90200
      C    C506    26.39000   16.82500   20.56500
      C    C507    26.55400   16.79400   20.60700
      O    O508    26.44300   18.06300   20.50200
      O    O509    26.97500   17.94500   20.63300
      C    C510    27.39100   15.62300   22.58000
      C    C511    27.24300   15.78000   22.76000
      C    C512    27.53900   14.18200   22.20300
      C    C513    26.88100   14.57000   23.43000
      C    C514    26.12400   13.68400   21.98900
      C    C515    25.76800   13.89600   22.64800
      N    N516    26.56900   16.03100   19.51300
      C    C517    27.01400   16.58000   18.22200
      C    C518    25.88100   17.18700   17.41900
      O    O519    26.13600   17.98600   16.50300
      C    C520    27.66100   15.48000   17.38600
      C    C521    28.85200   14.87700   18.04500
      C    C522    30.03800   15.57300   18.12800
      C    C523    28.77100   13.61600   18.63300
      C    C524    31.15800   15.01200   18.77900
      C    C525    29.87800   13.03800   19.25900
      C    C526    31.05800   13.74900   19.30700
      O    O527    32.17900   13.20100   19.90200
      N    N528    24.63300   16.84400   17.75400
      C    C529    23.50200   17.25800   16.92300
      C    C530    22.25300   17.07900   17.74000
      O    O531    21.81000   15.94400   17.92400
      C    C532    23.43100   16.41900   15.62900
      C    C533    22.32700   16.85800   14.70800
      O    O534    21.51900   17.71100   15.10800
      O    O535    22.24600   16.31200   13.59800
      N    N536    21.69000   18.18800   18.22600
      C    C537    20.53300   18.13400   19.08600
      C    C538    19.28600   17.70600   18.30500
      O    O539    18.21400   17.53900   18.91200
      C    C540    20.29000   19.49300   19.73500
      C    C541    21.42700   19.92300   20.67500
      C    C542    21.14400   21.36100   21.18100
      C    C543    21.64900   18.90700   21.80600
      N    N544    19.38700   17.54500   16.98000
      C    C545    18.27000   17.01700   16.24100
      C    C546    18.32000   15.49200   16.05900
      O    O547    17.46800   14.94700   15.38500
      C    C548    18.13300   17.70500   14.88900
      O    O549    19.09900   17.24600   13.97500
      N    N550    19.28200   14.83100   16.71500
      C    C551    19.39700   13.38700   16.67700
      C    C552    19.49000   12.88800   18.10700
      O    O553    19.99600   13.59200   18.99000
      C    C554    20.64300   12.93800   15.90300
      C    C555    20.55100   13.21000   14.39500
      C    C556    19.39500   12.38200   13.77300
      N    N557    19.29500   12.62200   12.33600
      C    C558    19.87200   11.84700   11.41100
      N    N559    20.58000   10.77400   11.74000
      N    N560    19.68600   12.13200   10.13100
      N    N561    19.04600   11.65200   18.34200
      C    C562    19.16900   11.14500   19.71400
      C    C563    18.83600    9.66700   19.79000
      O    O564    18.73000    8.95600   18.76500
      N    N565    18.68600    9.22700   21.03900
      C    C566    18.39100    7.85100   21.37800
      C    C567    17.14800    7.83800   22.26000
      O    O568    17.09500    8.52200   23.29700
      C    C569    19.60900    7.25700   22.14500
      C    C570    19.45900    5.88300   22.67400
      C    C571    20.78900    5.31100   23.31800
      N    N572    21.34900    6.06000   24.43500
      C    C573    22.41400    6.87000   24.37400
      N    N574    23.08500    7.05500   23.23500
      N    N575    22.85100    7.47600   25.45800
      N    N576    16.14500    7.05800   21.86800
      C    C577    14.98600    6.86500   22.73200
      C    C578    15.42400    5.91800   23.86000
      O    O579    15.92300    4.81800   23.56700
      C    C580    13.80300    6.23500   21.98100
      C    C581    13.37900    7.14200   20.81900
      C    C582    12.63800    5.90700   23.00400
      C    C583    12.47900    6.36900   19.83700
      N    N584    15.22100    6.31500   25.12200
      C    C585    15.64400    5.44800   26.22500
      C    C586    14.50300    4.96000   27.12700
      O    O587    14.72100    4.09500   27.97500
      C    C588    16.72300    6.14100   27.09500
      C    C589    17.99900    6.29800   26.26000
      C    C590    16.26300    7.47600   27.64900
      N    N591    13.30400    5.49900   26.92500
      C    C592    12.17600    5.08900   27.71600
      C    C593    10.91500    5.37700   26.93600
      O    O594    10.81000    6.40700   26.27500
      C    C595    12.15200    5.84000   29.04400
      C    C596    11.06900    5.41700   30.00100
      C    C597    11.24100    4.30200   30.81300
      C    C598     9.89400    6.17900   30.12600
      C    C599    10.24200    3.94100   31.72200
      C    C600     8.91300    5.82600   31.04000
      C    C601     9.09900    4.70600   31.80400
      O    O602     8.12300    4.39000   32.76800
      N    N603     9.93600    4.47600   27.00800
      C    C604     8.62300    4.75200   26.42100
      C    C605     7.59000    4.53000   27.51300
      O    O606     7.54700    3.43800   28.13400
      C    C607     8.36100    3.84600   25.18900
      C    C608     7.16800    4.28200   24.36600
      C    C609     5.97200    3.58900   24.81700
      N    N610     6.05300    2.19500   24.38300
      C    C611     5.64600    1.14200   25.09000
      N    N612     5.08600    1.33000   26.28000
      N    N613     5.76700   -0.09600   24.59400
      N    N614     6.78100    5.54700   27.76900
      C    C615     5.76800    5.45800   28.84400
      C    C616     4.71200    4.44000   28.53600
      O    O617     4.26700    4.29400   27.38900
      C    C618     5.11600    6.80300   29.04700
      C    C619     5.98000    7.78100   29.77600
      C    C620     5.83800    7.91600   31.15900
      C    C621     6.92100    8.58300   29.12100
      C    C622     6.58300    8.79400   31.86400
      C    C623     7.69300    9.50900   29.85200
      C    C624     7.51600    9.59500   31.23500
      O    O625     8.24100   10.49200   32.02200
      N    N626     4.29600    3.72200   29.58300
      C    C627     3.25800    2.72900   29.36900
      C    C628     1.91000    3.41700   29.16700
      O    O629     1.71400    4.55800   29.56500
      C    C630     3.23900    1.70600   30.51500
      C    C631     4.03500    0.42000   30.25100
      C    C632     5.35000    0.56000   29.44100
      C    C633     6.52900    1.16400   30.23800
      N    N634     7.88500    0.95400   29.61000
      O    O635     0.99400    2.85700   28.55300
