# CIF file generated by openbabel 2.3.2, see http://openbabel.sf.net
data_I
_chemical_name_common '../proteins/pdb/3M91.pdb'
_cell_length_a 44.752
_cell_length_b 28.093
_cell_length_c 96.233
_cell_angle_alpha 90
_cell_angle_beta 103.43
_cell_angle_gamma 90
_space_group_name_H-M_alt 'P 1 21 1'
_space_group_name_Hall 'P 2yb'
loop_
    _symmetry_equiv_pos_as_xyz
    'x,y,z'
    '-x,1/2+y,-z'
loop_
    _atom_site_type_symbol
    _atom_site_label
    _atom_site_Cartn_x
    _atom_site_Cartn_y
    _atom_site_Cartn_z
      N    N1    -6.52500 -783.37900  -56.27000
      C    C2    -7.54700 -784.41900  -55.94900
      C    C3    -6.97100 -785.68200  -55.28500
      O    O4    -7.37100 -785.99200  -54.16800
      C    C5    -8.39900 -784.78100  -57.15800
      O    O6    -9.68400 -785.15200  -56.71600
      N    N7    -6.04800 -786.40500  -55.93300
      C    C8    -5.29800 -787.47600  -55.23700
      C    C9    -4.57300 -786.92300  -53.99200
      O    O10    -4.59900 -787.52900  -52.90800
      C    C11    -4.30400 -788.14600  -56.16900
      N    N12    -3.93800 -785.76500  -54.16100
      C    C13    -3.23400 -785.11200  -53.07400
      C    C14    -4.17900 -784.51200  -52.03900
      O    O15    -3.82100 -784.39500  -50.88600
      C    C16    -2.29500 -784.03100  -53.59400
      C    C17    -1.46100 -783.42400  -52.48300
      C    C18    -0.21300 -782.76300  -53.00000
      N    N19     0.20500 -783.31000  -54.29000
      C    C20     1.36900 -783.03700  -54.86700
      N    N21     2.23700 -782.23700  -54.26400
      N    N22     1.66900 -783.56700  -56.04300
      N    N23    -5.37200 -784.11600  -52.45500
      C    C24    -6.33100 -783.54700  -51.52900
      C    C25    -6.92600 -784.64300  -50.67900
      O    O26    -6.93000 -784.53500  -49.44000
      C    C27    -7.45100 -782.81500  -52.26500
      C    C28    -6.99900 -781.49900  -52.86400
      O    O29    -5.93400 -780.96700  -52.46900
      O    O30    -7.72700 -780.99000  -53.73800
      N    N31    -7.43000 -785.67900  -51.36200
      C    C32    -7.96200 -786.88800  -50.74100
      C    C33    -6.99900 -787.43800  -49.67800
      O    O34    -7.44000 -787.78100  -48.58300
      C    C35    -8.32200 -787.98200  -51.79500
      C    C36    -9.62100 -787.63500  -52.55000
      C    C37    -8.37500 -789.37100  -51.17800
      C    C38   -10.87200 -787.46100  -51.72400
      N    N39    -5.69700 -787.48000  -49.98400
      C    C40    -4.67600 -787.98900  -49.04800
      C    C41    -4.51500 -787.07100  -47.82200
      O    O42    -4.37700 -787.56600  -46.70000
      C    C43    -3.32900 -788.22100  -49.77400
      C    C44    -2.46600 -789.30900  -49.18000
      N    N45    -1.70200 -789.12900  -48.03900
      C    C46    -2.20600 -790.57300  -49.60800
      C    C47    -1.03500 -790.24100  -47.77400
      N    N48    -1.32400 -791.13400  -48.70900
      N    N49    -4.57000 -785.75500  -48.04000
      C    C50    -4.40500 -784.76200  -46.96400
      C    C51    -5.60200 -784.68900  -46.01800
      O    O52    -5.45000 -784.46200  -44.80700
      C    C53    -4.09900 -783.37500  -47.53100
      C    C54    -2.71200 -783.28500  -48.15100
      C    C55    -2.33900 -781.87200  -48.58200
      O    O56    -1.80600 -781.10200  -47.77900
      N    N57    -2.59300 -781.53400  -49.85800
      N    N58    -6.78200 -784.88600  -46.58800
      C    C59    -7.98400 -784.98000  -45.81400
      C    C60    -8.02100 -786.27900  -45.05900
      O    O61    -8.52500 -786.31500  -43.94400
      C    C62    -9.23200 -784.84800  -46.66500
      C    C63    -9.48400 -783.48200  -47.29600
      C    C64   -10.90200 -783.46500  -47.88700
      C    C65    -9.23300 -782.29200  -46.35400
      N    N66    -7.48700 -787.33900  -45.64900
      C    C67    -7.42400 -788.59900  -44.93000
      C    C68    -6.46200 -788.52200  -43.74900
      O    O69    -6.71400 -789.13500  -42.70400
      C    C70    -7.05800 -789.76200  -45.84100
      C    C71    -8.26200 -790.38300  -46.56700
      C    C72    -7.86000 -791.25800  -47.78500
      O    O73    -6.72100 -791.12900  -48.31300
      O    O74    -8.68900 -792.09400  -48.19600
      N    N75    -5.37700 -787.76500  -43.90300
      C    C76    -4.34500 -787.68000  -42.86700
      C    C77    -4.74100 -786.75400  -41.69100
      O    O78    -4.26000 -786.92400  -40.55900
      C    C79    -3.01000 -787.25000  -43.47200
      N    N80    -5.59400 -785.76900  -41.98500
      C    C81    -6.18700 -784.90300  -40.98900
      C    C82    -7.22000 -785.69300  -40.15500
      O    O83    -7.18200 -785.64100  -38.91100
      C    C84    -6.79200 -783.66500  -41.65200
      C    C85    -7.91800 -783.03400  -40.85900
      C    C86    -7.41100 -782.40600  -39.56000
      N    N87    -7.43300 -780.95000  -39.62200
      C    C88    -6.38100 -780.21200  -39.94100
      N    N89    -5.21500 -780.80500  -40.20500
      N    N90    -6.49200 -778.88600  -39.99400
      N    N91    -8.12000 -786.40400  -40.82500
      C    C92    -8.98500 -787.38800  -40.19000
      C    C93    -8.21700 -788.36400  -39.30600
      O    O94    -8.58000 -788.48600  -38.12100
      C    C95    -9.85500 -788.17400  -41.19200
      C    C96   -11.10600 -787.36000  -41.56000
      C    C97   -10.22100 -789.59100  -40.66800
      C    C98   -11.78400 -787.82100  -42.85800
      N    N99    -7.17900 -789.03500  -39.82900
      C    C100    -6.34800 -789.91900  -38.99200
      C    C101    -5.82500 -789.23500  -37.71900
      O    O102    -5.84800 -789.84200  -36.63000
      C    C103    -5.16300 -790.45800  -39.75000
      C    C104    -5.57400 -791.45800  -40.82800
      O    O105    -6.78800 -791.77300  -40.92900
      O    O106    -4.68500 -791.93600  -41.57800
      N    N107    -5.37100 -787.98700  -37.90400
      C    C108    -4.83500 -787.13600  -36.85600
      C    C109    -5.87600 -786.83900  -35.77000
      O    O110    -5.59300 -787.03600  -34.57700
      C    C111    -4.28700 -785.81600  -37.43400
      O    O112    -4.10600 -784.83400  -36.39700
      N    N113    -7.04800 -786.35500  -36.18800
      C    C114    -8.13700 -786.06000  -35.29100
      C    C115    -8.63800 -787.31700  -34.59800
      O    O116    -8.94600 -787.26500  -33.38100
      C    C117    -9.29500 -785.31900  -35.94200
      C    C118    -9.07400 -783.92100  -36.48500
      C    C119   -10.24800 -783.63400  -37.40800
      C    C120    -8.97500 -782.85500  -35.45000
      N    N121    -8.65000 -788.43000  -35.31400
      C    C122    -9.05500 -789.70200  -34.74100
      C    C123    -8.12500 -790.14300  -33.59600
      O    O124    -8.60900 -790.63700  -32.56700
      C    C125    -9.14500 -790.77700  -35.80100
      N    N126    -6.81600 -789.96900  -33.78500
      C    C127    -5.80400 -790.27200  -32.75000
      C    C128    -5.90700 -789.33700  -31.50800
      O    O129    -5.81300 -789.81100  -30.38200
      C    C130    -4.38600 -790.22800  -33.32900
      N    N131    -6.07400 -788.03500  -31.75600
      C    C132    -6.32600 -787.05000  -30.75100
      C    C133    -7.59200 -787.34000  -29.94000
      O    O134    -7.55900 -787.26000  -28.71000
      C    C135    -6.36700 -785.64700  -31.33000
      C    C136    -4.95300 -785.06200  -31.53500
      C    C137    -4.82400 -784.16300  -32.81100
      N    N138    -3.95900 -782.98800  -32.59600
      C    C139    -4.36700 -781.71900  -32.74400
      N    N140    -5.62900 -781.47500  -33.15800
      N    N141    -3.51500 -780.70000  -32.49600
      N    N142    -8.66100 -787.71100  -30.60400
      C    C143    -9.88400 -788.06300  -29.93300
      C    C144    -9.70600 -789.25900  -29.04000
      O    O145   -10.14700 -789.24600  -27.93200
      C    C146   -10.88100 -788.24600  -31.05700
      C    C147   -10.89600 -788.05900  -30.98700
      C    C148   -12.23200 -788.68300  -30.57200
      C    C149   -11.57400 -786.74300  -31.13300
      O    O150   -13.18500 -787.91000  -30.50200
      O    O151   -12.76900 -786.63900  -31.34300
      N    N152   -12.32000 -789.93900  -30.21300
      N    N153   -10.79300 -785.70900  -31.02500
      N    N154    -9.05800 -790.28800  -29.53800
      C    C155    -8.69700 -791.45600  -28.79600
      C    C156    -7.91100 -791.11400  -27.51900
      O    O157    -8.23000 -791.64100  -26.45900
      C    C158    -7.85300 -792.33400  -29.66300
      O    O159    -7.64000 -793.56700  -29.00700
      N    N160    -6.91900 -790.22900  -27.62400
      C    C161    -6.11100 -789.83500  -26.48100
      C    C162    -6.95300 -789.04200  -25.45100
      O    O163    -6.80600 -789.22700  -24.21800
      C    C164    -4.91100 -789.00600  -26.94000
      C    C165    -3.96000 -788.57400  -25.82900
      C    C166    -3.18900 -789.80300  -25.24900
      C    C167    -2.39800 -789.50200  -23.92300
      N    N168    -2.48400 -790.56800  -22.81700
      N    N169    -7.81500 -788.16200  -25.94000
      C    C170    -8.60900 -787.35900  -25.07400
      C    C171    -9.57600 -788.25300  -24.33100
      O    O172    -9.85100 -788.01100  -23.14700
      C    C173    -9.38300 -786.26600  -25.82200
      C    C174    -8.54000 -785.03400  -26.23300
      C    C175    -9.33300 -784.21300  -27.27800
      C    C176    -8.13800 -784.11700  -25.10900
      N    N177   -10.10000 -789.25100  -25.02000
      C    C178   -11.10800 -790.15700  -24.45100
      C    C179   -10.55200 -791.06300  -23.34100
      O    O180   -11.19900 -791.28700  -22.28400
      C    C181   -11.69100 -791.04700  -25.53900
      C    C182   -13.02300 -791.56300  -25.10200
      S    S183   -14.10100 -792.30000  -26.40300
      C    C184   -13.65000 -791.36200  -27.87300
      N    N185    -9.39000 -791.63500  -23.63100
      C    C186    -8.60900 -792.35300  -22.66300
      C    C187    -8.29900 -791.50900  -21.39400
      O    O188    -8.40200 -792.03800  -20.24900
      C    C189    -7.28400 -792.86400  -23.26500
      C    C190    -6.45700 -793.83200  -22.33000
      C    C191    -7.33600 -794.97900  -21.65900
      O    O192    -8.00100 -795.76100  -22.42000
      O    O193    -7.37200 -795.08000  -20.36200
      N    N194    -7.84500 -790.26900  -21.60300
      C    C195    -7.44700 -789.40800  -20.49600
      C    C196    -8.72300 -789.07900  -19.66900
      O    O197    -8.68000 -789.00300  -18.45700
      C    C198    -6.77100 -788.12000  -20.98000
      O    O199    -5.68000 -788.50100  -21.83600
      C    C200    -6.15900 -787.40700  -19.79700
      N    N201    -9.84400 -788.84200  -20.34600
      C    C202   -11.07700 -788.56400  -19.64100
      C    C203   -11.60900 -789.80400  -18.82800
      O    O204   -12.15600 -789.64500  -17.69500
      C    C205   -12.10400 -788.07300  -20.68600
      C    C206   -13.35200 -787.38400  -20.17400
      C    C207   -13.12600 -786.14700  -19.23400
      C    C208   -14.21900 -787.00300  -21.41900
      N    N209   -11.42800 -791.01400  -19.35800
      C    C210   -11.79500 -792.22200  -18.60100
      C    C211   -10.93900 -792.29300  -17.32700
      O    O212   -11.44500 -792.63100  -16.28300
      C    C213   -11.54400 -793.45900  -19.40300
      C    C214   -12.72400 -793.78200  -20.32600
      C    C215   -12.38500 -794.96000  -21.29800
      C    C216   -13.57000 -795.16400  -22.26200
      N    N217   -13.14200 -795.66500  -23.59200
      N    N218    -9.62400 -792.00700  -17.42200
      C    C219    -8.78200 -791.91400  -16.26600
      C    C220    -9.25700 -790.84400  -15.28700
      O    O221    -9.25700 -791.10900  -14.08200
      C    C222    -7.29300 -791.67500  -16.59600
      C    C223    -6.73600 -792.88500  -17.42500
      C    C224    -5.35200 -792.59500  -18.09900
      O    O225    -4.79000 -791.51500  -17.87600
      O    O226    -4.85300 -793.47000  -18.86800
      N    N227    -9.67500 -789.67900  -15.77100
      C    C228   -10.10000 -788.60300  -14.87200
      C    C229   -11.39200 -789.01600  -14.18500
      O    O230   -11.58300 -788.73100  -12.97700
      C    C231   -10.36800 -787.28500  -15.66400
      N    N232   -12.29900 -789.66600  -14.94900
      C    C233   -13.53100 -790.23100  -14.36700
      C    C234   -13.24900 -791.13600  -13.14400
      O    O235   -13.87300 -790.90200  -12.10700
      C    C236   -14.34900 -790.97600  -15.46100
      C    C237   -15.87300 -790.99000  -15.13300
      C    C238   -16.27700 -792.29000  -14.51500
      N    N239   -17.75100 -792.36600  -14.31700
      C    C240   -18.38000 -792.81800  -13.21000
      N    N241   -17.71200 -793.28200  -12.13500
      N    N242   -19.70200 -792.73300  -13.13800
      N    N243   -12.39300 -792.17800  -13.27700
      C    C244   -11.99800 -793.05400  -12.20200
      C    C245   -11.35900 -792.29600  -11.02200
      O    O246   -11.65100 -792.60600   -9.85600
      C    C247   -10.89800 -794.04100  -12.65300
      C    C248   -11.40400 -794.91600  -13.78100
      C    C249   -10.32800 -795.96400  -14.26100
      O    O250    -9.48900 -796.44400  -13.45100
      N    N251   -10.36300 -796.29500  -15.56000
      N    N252   -10.47900 -791.32100  -11.31000
      C    C253    -9.79200 -790.61800  -10.22500
      C    C254   -10.79500 -789.68300   -9.53600
      O    O255   -10.72700 -789.52300   -8.33800
      C    C256    -8.59400 -789.82000  -10.80100
      C    C257    -7.71500 -789.25100   -9.63600
      C    C258    -7.06500 -790.42800   -8.86900
      O    O259    -7.00500 -791.49600   -9.38500
      N    N260    -6.70500 -790.23100   -7.66500
      N    N261   -11.70700 -789.04300  -10.26700
      C    C262   -12.69400 -788.22000   -9.59700
      C    C263   -13.53300 -789.04200   -8.59300
      O    O264   -13.90200 -788.55400   -7.51700
      C    C265   -13.68000 -787.58000  -10.58300
      C    C266   -13.15500 -786.38800  -11.42800
      C    C267   -14.00700 -786.19300  -12.76800
      C    C268   -12.97100 -785.11600  -10.60200
      N    N269   -13.94200 -790.24200   -9.02500
      C    C270   -14.72600 -791.08300   -8.16200
      C    C271   -13.88600 -791.44800   -6.93500
      O    O272   -14.40400 -791.46400   -5.80000
      C    C273   -15.17000 -792.32300   -8.95700
      C    C274   -16.00400 -793.36400   -8.21100
      C    C275   -17.37900 -792.69400   -7.80200
      C    C276   -16.24800 -794.70100   -9.04300
      N    N277   -12.63300 -791.83900   -7.13600
      C    C278   -11.80300 -792.23300   -5.96600
      C    C279   -11.62300 -791.05900   -4.98100
      O    O280   -11.67600 -791.26000   -3.77500
      C    C281   -10.41000 -792.78800   -6.43600
      N    N282   -11.51700 -789.83700   -5.51000
      C    C283   -11.36000 -788.68000   -4.61300
      C    C284   -12.66900 -788.36800   -3.92700
      O    O285   -12.67000 -788.12000   -2.74800
      C    C286   -10.90300 -787.44200   -5.37000
      C    C287    -9.38500 -787.53600   -5.77300
      C    C288    -9.10600 -786.45900   -6.89700
      C    C289    -8.41200 -787.33900   -4.57800
      N    N290   -13.77300 -788.46900   -4.67500
      C    C291   -15.10000 -788.25000   -3.99100
      C    C292   -15.28100 -789.27300   -2.85400
      O    O293   -15.74500 -788.91600   -1.78800
      C    C294   -16.20400 -788.40600   -5.02000
      C    C295   -17.59400 -787.90500   -4.42300
      C    C296   -18.79200 -788.52400   -5.27200
      N    N297   -18.96800 -789.93300   -4.95100
      C    C298   -19.59900 -790.82200   -5.70500
      N    N299   -20.20100 -790.47900   -6.82200
      N    N300   -19.62300 -792.11000   -5.30400
      N    N301   -14.95100 -790.55200   -3.02600
      C    C302   -15.07300 -791.54300   -1.94700
      C    C303   -14.17900 -791.21400   -0.72100
      O    O304   -14.60100 -791.38700    0.44000
      C    C305   -14.64500 -792.93000   -2.49000
      C    C306   -15.53900 -793.42500   -3.62100
      C    C307   -16.85300 -794.00000   -3.11700
      O    O308   -16.94400 -794.46300   -1.94300
      O    O309   -17.80600 -794.05600   -3.93900
      N    N310   -12.98500 -790.63700   -1.01100
      C    C311   -12.04400 -790.31900    0.09200
      C    C312   -12.59500 -789.10200    0.81200
      O    O313   -12.56100 -789.02400    2.06900
      C    C314   -10.70700 -789.99400   -0.44500
      C    C315    -9.65900 -789.58600    0.68900
      C    C316    -9.27800 -790.77100    1.56900
      O    O317    -8.73700 -790.55100    2.63900
      O    O318    -9.58000 -791.90600    1.24700
      N    N319   -13.15200 -788.15700    0.04200
      C    C320   -13.79100 -786.98100    0.70600
      C    C321   -14.91700 -787.40800    1.67700
      O    O322   -15.01600 -786.95600    2.87400
      C    C323   -14.24000 -785.94200   -0.32400
      C    C324   -15.17400 -784.87600    0.34700
      C    C325   -12.98600 -785.15700   -0.96300
      N    N326   -15.76000 -788.37300    1.20400
      C    C327   -16.85300 -788.81900    2.03200
      C    C328   -16.33000 -789.63200    3.21600
      O    O329   -16.99500 -789.59400    4.26500
      C    C330   -17.83300 -789.66400    1.17600
      C    C331   -18.71800 -788.78800    0.32600
      O    O332   -18.78100 -787.58100    0.62500
      O    O333   -19.27300 -789.30300   -0.65500
      N    N334   -15.19400 -790.35400    3.06500
      C    C335   -14.64400 -791.10700    4.17600
      C    C336   -14.03700 -790.10500    5.17600
      O    O337   -14.07800 -790.33300    6.36900
      C    C338   -13.48100 -792.01600    3.72100
      C    C339   -13.92300 -793.38000    3.50800
      C    C340   -12.69500 -794.37300    3.38600
      N    N341   -11.90400 -793.93100    2.26700
      C    C342   -12.10900 -794.25400    0.97400
      N    N343   -13.06600 -795.10300    0.61000
      N    N344   -11.31500 -793.73900    0.05400
      N    N345   -13.48600 -789.00200    4.72200
      C    C346   -12.74100 -788.14700    5.65100
      C    C347   -13.72300 -787.28500    6.41200
      O    O348   -13.49600 -787.03400    7.59200
      C    C349   -11.60500 -787.35500    4.95900
      C    C350   -10.40700 -788.12000    4.40200
      C    C351    -9.63600 -787.14100    3.49100
      C    C352    -9.39500 -788.82500    5.44100
      N    N353   -14.83700 -786.92000    5.78100
      C    C354   -15.88900 -786.12100    6.39300
      C    C355   -16.91800 -786.99000    7.12400
      O    O356   -18.07300 -786.59200    7.32300
      N    N357   -16.53900 -788.19100    7.55600
      C    C358   -17.53800 -789.13000    8.13700
      C    C359   -17.33900 -789.37700    9.64200
      O    O360   -16.21300 -789.32700   10.14900
      C    C361   -17.54500 -790.45400    7.34900
      C    C362   -18.14500 -791.64900    8.07200
      C    C363   -17.43500 -792.96000    7.70400
      O    O364   -17.01500 -793.16200    6.54000
      N    N365   -17.30100 -793.86700    8.70100
