# CIF file generated by openbabel 2.3.2, see http://openbabel.sf.net
data_I
_chemical_name_common '../proteins/pdb/3M9H.pdb'
_cell_length_a 80.752
_cell_length_b 114.164
_cell_length_c 114.49
_cell_angle_alpha 90
_cell_angle_beta 90
_cell_angle_gamma 90
_space_group_name_H-M_alt 'F 2 2 2'
_space_group_name_Hall 'F 2 2'
loop_
    _symmetry_equiv_pos_as_xyz
    'x,y,z'
    '-x,-y,z'
    '-x,y,-z'
    'x,-y,-z'
    'x,1/2+y,1/2+z'
    '-x,1/2-y,1/2+z'
    '-x,1/2+y,1/2-z'
    'x,1/2-y,1/2-z'
    '1/2+x,y,1/2+z'
    '1/2-x,-y,1/2+z'
    '1/2-x,y,1/2-z'
    '1/2+x,-y,1/2-z'
    '1/2+x,1/2+y,z'
    '1/2-x,1/2-y,z'
    '1/2-x,1/2+y,-z'
    '1/2+x,1/2-y,-z'
loop_
    _atom_site_type_symbol
    _atom_site_label
    _atom_site_Cartn_x
    _atom_site_Cartn_y
    _atom_site_Cartn_z
      N    N1     4.98300   12.07100  -50.04600
      C    C2     5.58400   12.42200  -48.73300
      C    C3     4.55400   12.32200  -47.61100
      O    O4     4.90400   11.97800  -46.47400
      C    C5     6.21800   13.81700  -48.75200
      O    O6     6.99100   14.03600  -47.57800
      N    N7     3.29100   12.62800  -47.92100
      C    C8     2.18600   12.32600  -47.00000
      C    C9     2.29000   10.84200  -46.65000
      O    O10     2.03500   10.43700  -45.50400
      C    C11     0.83500   12.64400  -47.64000
      N    N12     2.71100   10.04500  -47.63800
      C    C13     2.92100    8.61600  -47.41600
      C    C14     4.31800    8.23100  -46.92000
      O    O15     4.55900    7.06500  -46.63300
      C    C16     2.47900    7.77800  -48.62600
      C    C17     1.15000    7.02600  -48.37900
      C    C18     0.59500    6.37900  -49.64800
      N    N19    -0.26100    7.28100  -50.42200
      C    C20    -1.54900    7.49800  -50.16100
      N    N21    -2.12600    6.88700  -49.12900
      N    N22    -2.25600    8.32900  -50.91500
      N    N23     5.23000    9.19600  -46.81600
      C    C24     6.42900    8.99300  -45.99200
      C    C25     5.95400    8.84700  -44.54300
      O    O26     6.33500    7.90500  -43.82500
      C    C27     7.41000   10.18200  -46.10500
      C    C28     8.22200   10.18600  -47.41800
      O    O29     8.46800    9.08500  -47.96000
      O    O30     8.63000   11.28300  -47.90000
      N    N31     5.09100    9.77600  -44.13600
      C    C32     4.62700    9.87200  -42.76000
      C    C33     3.69300    8.73400  -42.36100
      O    O34     3.83100    8.21300  -41.28200
      C    C35     4.01900   11.27800  -42.45600
      C    C36     5.12600   12.27200  -42.10000
      C    C37     3.08000   11.24800  -41.26500
      C    C38     6.26900   12.31300  -43.08500
      N    N39     2.77400    8.33200  -43.24100
      C    C40     1.90700    7.19300  -42.95100
      C    C41     2.72400    5.91000  -42.81800
      O    O42     2.38500    5.06000  -42.01200
      C    C43     0.76200    7.04200  -43.96700
      C    C44    -0.02400    8.31100  -44.20800
      N    N45    -0.25300    9.25700  -43.22700
      C    C46    -0.65700    8.77000  -45.31700
      C    C47    -0.96400   10.25300  -43.73000
      N    N48    -1.23200    9.97800  -44.99400
      N    N49     3.82000    5.77400  -43.57000
      C    C50     4.70900    4.62000  -43.38300
      C    C51     5.33500    4.65400  -42.01000
      O    O52     5.39800    3.60600  -41.31200
      C    C53     5.80900    4.56800  -44.44100
      C    C54     5.33500    4.69700  -45.87900
      C    C55     5.00700    3.36900  -46.57600
      O    O56     5.53400    3.08700  -47.67400
      N    N57     4.11800    2.56500  -45.97000
      N    N58     5.83600    5.83300  -41.61600
      C    C59     6.45100    5.98700  -40.26700
      C    C60     5.43200    5.71900  -39.15500
      O    O61     5.73900    5.01100  -38.18900
      C    C62     7.08300    7.36900  -40.08700
      C    C63     8.25100    7.66200  -41.04600
      C    C64     8.68300    9.12200  -40.97400
      C    C65     9.39800    6.70200  -40.68500
      N    N66     4.22400    6.27100  -39.31000
      C    C67     3.12000    6.07000  -38.34400
      C    C68     2.78700    4.59000  -38.23500
      O    O69     2.67700    4.07000  -37.13900
      C    C70     1.86800    6.89100  -38.69700
      C    C71     1.95300    8.42300  -38.41700
      C    C72     0.77100    9.25600  -38.99000
      O    O73     0.21500    8.93100  -40.07200
      O    O74     0.41100   10.28400  -38.37300
      N    N75     2.65900    3.89300  -39.36500
      C    C76     2.39700    2.43700  -39.32700
      C    C77     3.45300    1.70900  -38.50600
      O    O78     3.16100    0.85200  -37.69900
      C    C79     2.32500    1.83300  -40.77600
      N    N80     4.70000    2.07500  -38.68400
      C    C81     5.75400    1.42000  -37.95900
      C    C82     5.71600    1.74300  -36.46500
      O    O83     5.94100    0.87400  -35.60800
      C    C84     7.04400    1.89400  -38.56300
      C    C85     7.54000    0.99900  -39.65100
      C    C86     8.85300    0.26800  -39.15300
      N    N87     9.00200   -1.03400  -39.81800
      C    C88     9.16500   -1.23300  -41.12700
      N    N89     9.20700   -0.21900  -41.97500
      N    N90     9.27400   -2.46800  -41.59300
      N    N91     5.43000    2.99400  -36.13800
      C    C92     5.39400    3.35300  -34.70200
      C    C93     4.21600    2.62700  -34.02500
      O    O94     4.32000    2.10500  -32.89800
      C    C95     5.31500    4.86000  -34.54700
      C    C96     6.65100    5.47000  -34.96400
      C    C97     5.01100    5.24400  -33.13600
      C    C98     6.56300    6.94400  -35.43600
      N    N99     3.07800    2.59400  -34.71500
      C    C100     1.88300    1.87600  -34.18400
      C    C101     2.17800    0.42900  -33.89000
      O    O102     1.77000   -0.09300  -32.85600
      C    C103     0.70100    1.99400  -35.18000
      C    C104     0.08500    3.38700  -35.18000
      O    O105     0.43800    4.20800  -34.29300
      O    O106    -0.74100    3.67100  -36.05700
      N    N107     2.89900   -0.22900  -34.78600
      C    C108     3.31800   -1.60800  -34.57300
      C    C109     4.20200   -1.76400  -33.35500
      O    O110     4.04700   -2.71100  -32.61600
      C    C111     4.13700   -2.12100  -35.78700
      O    O112     4.28600   -3.52200  -35.64500
      N    N113     5.17500   -0.87700  -33.17900
      C    C114     6.03100   -0.90900  -32.00000
      C    C115     5.18200   -0.69100  -30.74100
      O    O116     5.42000   -1.32500  -29.70100
      C    C117     7.08000    0.20400  -32.12100
      C    C118     8.17100   -0.21800  -33.08500
      C    C119     8.97800    0.97200  -33.42400
      C    C120     9.02600   -1.21700  -32.31800
      N    N121     4.22000    0.23700  -30.80900
      C    C122     3.39300    0.48500  -29.62300
      C    C123     2.54100   -0.74500  -29.28800
      O    O124     2.36800   -1.08500  -28.09500
      C    C125     2.51900    1.76500  -29.83400
      N    N126     2.07200   -1.47900  -30.30000
      C    C127     1.28200   -2.69500  -30.03800
      C    C128     2.15700   -3.78000  -29.38100
      O    O129     1.67800   -4.56500  -28.50100
      C    C130     0.60100   -3.22500  -31.37100
      N    N131     3.42200   -3.86900  -29.81800
      C    C132     4.36300   -4.83100  -29.19800
      C    C133     4.68000   -4.39400  -27.79500
      O    O134     4.75900   -5.24600  -26.89400
      C    C135     5.66600   -4.98500  -29.98100
      C    C136     5.36500   -5.67500  -31.30000
      C    C137     6.65600   -6.09700  -32.06500
      N    N138     6.23000   -7.06700  -33.07700
      C    C139     5.92000   -6.75800  -34.33700
      N    N140     6.00500   -5.49200  -34.74600
      N    N141     5.53700   -7.70900  -35.18700
      N    N142     4.90000   -3.08500  -27.60100
      C    C143     4.98200   -2.60600  -26.22500
      C    C144     3.82100   -3.04200  -25.30500
      O    O145     4.10500   -3.47700  -24.18900
      C    C146     5.27100   -1.09200  -26.18900
      C    C147     5.32500   -0.51100  -24.77300
      O    O148     4.27200   -0.14300  -24.18000
      N    N149     6.54800   -0.34700  -24.23800
      N    N150     2.55200   -2.93300  -25.73700
      C    C151     1.41200   -3.34200  -24.92400
      C    C152     1.43600   -4.85500  -24.71000
      O    O153     1.13400   -5.32900  -23.60700
      C    C154     0.09100   -3.00400  -25.62400
      O    O155    -0.20000   -1.66700  -25.28400
      N    N156     1.78300   -5.60500  -25.73800
      C    C157     1.89400   -7.06500  -25.61700
      C    C158     2.93000   -7.45500  -24.53000
      O    O159     2.68100   -8.36900  -23.68800
      C    C160     2.29300   -7.70000  -27.01400
      C    C161     2.48400   -9.20600  -26.93000
      C    C162     2.74000   -9.83200  -28.28600
      C    C163     2.60800  -11.31000  -28.22200
      N    N164     2.71000  -11.82600  -29.67800
      N    N165     4.07900   -6.78000  -24.54400
      C    C166     5.13200   -6.99900  -23.49700
      C    C167     4.61500   -6.68300  -22.11500
      O    O168     4.79400   -7.50800  -21.17300
      C    C169     6.37300   -6.16600  -23.79900
      C    C170     7.15100   -6.62200  -25.02500
      C    C171     8.06400   -5.57100  -25.36400
      C    C172     7.98500   -7.91400  -24.70900
      N    N173     3.95600   -5.50300  -21.96100
      C    C174     3.46900   -5.13200  -20.62500
      C    C175     2.42200   -6.13000  -20.12300
      O    O176     2.41000   -6.42000  -18.91500
      C    C177     2.84800   -3.72100  -20.65600
      C    C178     2.41400   -3.19800  -19.30800
      S    S179     3.92500   -2.56300  -18.63600
      C    C180     4.12200   -1.12600  -19.80600
      N    N181     1.49500   -6.58300  -20.99200
      C    C182     0.45300   -7.50200  -20.51300
      C    C183     1.11800   -8.81300  -20.05100
      O    O184     0.73000   -9.40600  -19.03000
      C    C185    -0.56900   -7.86800  -21.63500
      C    C186    -1.87500   -7.25500  -21.56000
      C    C187    -2.54000   -7.32700  -20.22000
      O    O188    -3.10500   -8.37800  -19.80500
      O    O189    -2.53300   -6.28300  -19.59000
      N    N190     2.06500   -9.28900  -20.84200
      C    C191     2.74000  -10.56500  -20.55000
      C    C192     3.51900  -10.40900  -19.25100
      O    O193     3.56000  -11.35700  -18.43300
      C    C194     3.71700  -10.97700  -21.69600
      O    O195     2.99700  -11.06900  -22.91700
      C    C196     4.36300  -12.31700  -21.42700
      N    N197     4.19200   -9.27000  -19.06300
      C    C198     4.91000   -9.02200  -17.80800
      C    C199     4.00800   -8.95100  -16.58400
      O    O200     4.38100   -9.43300  -15.49900
      C    C201     5.72400   -7.73500  -17.83000
      C    C202     7.09300   -7.69600  -18.45500
      C    C203     7.55100   -6.22600  -18.35800
      C    C204     8.11700   -8.66400  -17.73600
      N    N205     2.84300   -8.33600  -16.73100
      C    C206     1.85200   -8.29600  -15.63500
      C    C207     1.38100   -9.70700  -15.21900
      O    O208     1.20800  -10.00800  -14.02800
      C    C209     0.68800   -7.32700  -15.97200
      C    C210     1.07800   -5.80400  -15.71400
      C    C211     0.06600   -4.72400  -16.33300
      C    C212     0.58100   -3.22200  -16.11900
      N    N213    -0.20100   -2.02200  -16.76900
      N    N214     1.20000  -10.59400  -16.18100
      C    C215     0.91500  -11.98800  -15.85700
      C    C216     2.06500  -12.71300  -15.15500
      O    O217     1.80800  -13.50300  -14.25800
      C    C218     0.61500  -12.80600  -17.12000
      C    C219    -0.52600  -12.28600  -17.95900
      C    C220    -0.68100  -13.13800  -19.25200
      O    O221     0.35400  -13.56600  -19.85200
      O    O222    -1.83600  -13.40300  -19.65200
      N    N223     3.31200  -12.47100  -15.57700
      C    C224     4.48400  -13.03700  -14.93600
      C    C225     4.59200  -12.57200  -13.47400
      O    O226     4.88200  -13.37300  -12.59900
      C    C227     5.79900  -12.68600  -15.74900
      N    N228     4.34500  -11.28700  -13.20600
      C    C229     4.34500  -10.77700  -11.84700
      C    C230     3.32600  -11.51600  -10.93600
      O    O231     3.65200  -11.83700   -9.78200
      C    C232     3.99800   -9.27700  -11.79000
      C    C233     4.00600   -8.72600  -10.34100
      C    C234     2.93100   -7.60100  -10.15400
      N    N235     3.31400   -6.45800  -10.93600
      C    C236     2.53000   -5.45900  -11.36500
      N    N237     1.22100   -5.41900  -11.14300
      N    N238     3.08800   -4.48700  -12.06900
      N    N239     2.09200  -11.69800  -11.43200
      C    C240     1.07800  -12.41000  -10.67600
      C    C241     1.52500  -13.85800  -10.36300
      O    O242     1.33900  -14.35800   -9.24100
      C    C243    -0.21300  -12.45500  -11.47200
      C    C244    -0.82600  -11.05300  -11.61500
      C    C245    -2.07000  -11.06200  -12.47100
      O    O246    -2.15400  -11.81400  -13.44700
      N    N247    -3.04000  -10.22100  -12.12300
      N    N248     2.09700  -14.52800  -11.35500
      C    C249     2.54800  -15.90500  -11.15900
      C    C250     3.74200  -16.03600  -10.23900
      O    O251     3.86000  -17.03300   -9.52300
      C    C252     2.97700  -16.47300  -12.48500
      C    C253     1.87400  -16.48600  -13.49500
      C    C254     1.65100  -17.84100  -13.85900
      O    O255     1.79800  -18.20200  -15.01000
      N    N256     1.41200  -18.67500  -12.86300
      N    N257     4.67600  -15.08200  -10.31700
      C    C258     5.79600  -15.02200   -9.35500
      C    C259     5.31800  -14.81300   -7.94100
      O    O260     5.82200  -15.46600   -7.01200
      C    C261     6.77500  -13.89600   -9.67100
      C    C262     7.78100  -14.10100  -10.79500
      C    C263     8.35400  -12.70400  -11.13700
      C    C264     8.92300  -15.09900  -10.50000
      N    N265     4.32300  -13.93500   -7.77900
      C    C266     3.71900  -13.75300   -6.44700
      C    C267     3.07300  -15.02300   -5.91000
      O    O268     3.24200  -15.35900   -4.76500
      C    C269     2.73200  -12.59000   -6.44700
      C    C270     3.50600  -11.26000   -6.63600
      C    C271     2.51200  -10.10300   -6.83600
      C    C272     4.56500  -10.89900   -5.46900
      N    N273     2.36100  -15.75700   -6.74200
      C    C274     1.75500  -17.01300   -6.31300
      C    C275     2.84800  -18.04300   -6.00900
      O    O276     2.72800  -18.82600   -5.08600
      C    C277     0.80900  -17.55200   -7.40800
      N    N278     3.91500  -18.06600   -6.78800
      C    C279     4.99600  -18.97600   -6.52300
      C    C280     5.60700  -18.64700   -5.16100
      O    O281     5.88400  -19.51300   -4.40900
      C    C282     6.04700  -18.92800   -7.63700
      C    C283     7.27300  -19.84200   -7.65100
      C    C284     6.92900  -21.27500   -7.57900
      C    C285     8.14100  -19.56500   -8.81600
      N    N286     5.78800  -17.38900   -4.83800
      C    C287     6.36300  -17.04400   -3.54900
      C    C288     5.44300  -17.51600   -2.39100
      O    O289     5.94200  -18.01900   -1.35500
      C    C290     6.72700  -15.53900   -3.47500
      C    C291     7.25700  -15.16700   -2.06100
      C    C292     8.03500  -13.85500   -1.99200
      N    N293     9.19000  -13.88000   -1.05100
      C    C294     9.16500  -14.30200    0.21400
      N    N295     8.06500  -14.81800    0.75300
      N    N296    10.26700  -14.23300    0.94600
      N    N297     4.11600  -17.47400   -2.59400
      C    C298     3.18400  -17.96500   -1.56300
      C    C299     3.17700  -19.47900   -1.45700
      O    O300     3.07600  -20.02800   -0.36000
      C    C301     1.76800  -17.40700   -1.75500
      C    C302     1.73700  -15.87000   -1.89700
      C    C303     0.33500  -15.27000   -2.02400
      O    O304     0.15600  -14.09700   -1.59100
      O    O305    -0.59200  -15.95700   -2.53400
      N    N306     3.30100  -20.16000   -2.59100
      C    C307     3.35200  -21.60200   -2.60300
      C    C308     4.61000  -22.11200   -1.91700
      O    O309     4.54300  -23.07300   -1.16200
      C    C310     3.23700  -22.13700   -4.03600
      C    C311     1.83200  -22.46200   -4.43500
      C    C312     1.63000  -22.58200   -5.94900
      O    O313     2.59200  -22.36300   -6.72400
      O    O314     0.49500  -22.90500   -6.37300
      N    N315     5.75500  -21.48300   -2.17000
      C    C316     6.99900  -21.83900   -1.49100
      C    C317     6.84200  -21.67800    0.04000
      O    O318     7.27500  -22.54700    0.78100
      C    C319     8.23300  -21.06400   -2.05200
      C    C320     9.44100  -21.22300   -1.17700
      C    C321     8.55300  -21.52800   -3.47700
      N    N322     6.21500  -20.59400    0.50400
      C    C323     5.94900  -20.39100    1.95800
      C    C324     5.01600  -21.42500    2.59200
      O    O325     5.26500  -21.88800    3.71300
      C    C326     5.43900  -18.97700    2.23400
      C    C327     6.48700  -17.94600    1.98100
      O    O328     7.65100  -18.34900    1.76400
      O    O329     6.16500  -16.74500    1.98000
      N    N330     3.95300  -21.79900    1.87500
      C    C331     3.10300  -22.92900    2.27200
      C    C332     3.95700  -24.12700    2.58200
      O    O333     3.50300  -25.04300    3.26200
      C    C334     2.07300  -23.28700    1.20300
      C    C335     0.64300  -22.99600    1.62800
      C    C336     0.55500  -21.79200    2.57300
      N    N337     0.90600  -20.51700    1.93800
      C    C338     1.25500  -19.41400    2.60100
      N    N339     1.30900  -19.40700    3.93800
      N    N340     1.55400  -18.31300    1.92000
      N    N341     5.18600  -24.11600    2.06000
      C    C342     6.23200  -25.02800    2.50600
      C    C343     7.24600  -24.32000    3.39100
      O    O344     7.23000  -24.49400    4.60900
      C    C345     6.93100  -25.70100    1.32500
      C    C346     6.39900  -27.10400    1.04500
      C    C347     7.09800  -27.67100   -0.21800
      C    C348     6.54100  -28.03700    2.28500
