# CIF file generated by openbabel 2.3.2, see http://openbabel.sf.net
data_I
_chemical_name_common '../proteins/pdb/3MAY.pdb'
_cell_length_a 72.671
_cell_length_b 72.671
_cell_length_c 173.909
_cell_angle_alpha 90
_cell_angle_beta 90
_cell_angle_gamma 90
_space_group_name_H-M_alt 'P 41'
_space_group_name_Hall 'P 4w'
loop_
    _symmetry_equiv_pos_as_xyz
    'x,y,z'
    '-x,-y,1/2+z'
    '-y,x,1/4+z'
    'y,-x,3/4+z'
loop_
    _atom_site_type_symbol
    _atom_site_label
    _atom_site_Cartn_x
    _atom_site_Cartn_y
    _atom_site_Cartn_z
      N    N1     9.86000   12.65500   34.08200
      C    C2     9.18800   11.46400   33.48600
      C    C3     7.69700   11.73400   33.45000
      O    O4     6.87600   10.85900   33.16300
      C    C5     9.50500   10.21200   34.31700
      S    S6    11.23400    9.59000   34.03200
      N    N7     7.37800   12.98500   33.75300
      C    C8     6.02500   13.43100   33.86700
      C    C9     5.53000   13.60700   32.46200
      O    O10     6.32100   13.92200   31.55300
      C    C11     5.98400   14.75000   34.62300
      N    N12     4.22700   13.42900   32.27400
      C    C13     3.63900   13.58700   30.96100
      C    C14     4.05700   14.88800   30.26900
      O    O15     4.28600   14.88900   29.07600
      C    C16     2.14300   13.44100   31.02700
      N    N17     4.17800   15.98700   31.00400
      C    C18     4.69900   17.25300   30.43300
      C    C19     6.06400   17.10800   29.83800
      O    O20     6.37200   17.77000   28.87600
      C    C21     4.79800   18.32200   31.48800
      O    O22     5.72100   17.93900   32.50100
      N    N23     6.90300   16.27100   30.41800
      C    C24     8.23600   16.16300   29.87900
      C    C25     8.28800   15.16500   28.69600
      O    O26     9.04300   15.42200   27.72800
      C    C27     9.30300   15.91400   30.95500
      C    C28     9.62400   17.12700   31.90000
      C    C29    10.01800   18.48300   31.15600
      O    O30     9.29500   19.52400   31.32500
      O    O31    11.05400   18.52200   30.42700
      N    N32     7.46300   14.09900   28.71300
      C    C33     7.43300   13.24100   27.55400
      C    C34     6.98300   14.04100   26.38100
      O    O35     7.66500   14.06000   25.35700
      C    C36     6.67100   11.90500   27.76000
      C    C37     7.02200   11.33600   29.11100
      C    C38     5.22800   12.07500   27.70800
      N    N39     5.91100   14.80000   26.55600
      C    C40     5.38300   15.63300   25.48800
      C    C41     6.40600   16.67900   24.96700
      O    O42     6.38600   17.08600   23.79800
      C    C43     4.13600   16.32600   25.96900
      N    N44     7.27500   17.15700   25.83500
      C    C45     8.13500   18.24000   25.40900
      C    C46     9.18500   17.67700   24.53300
      O    O47     9.43600   18.25900   23.47900
      C    C48     8.78300   18.93100   26.59600
      C    C49     7.96400   20.12300   27.01300
      C    C50     8.42500   20.66000   28.37400
      N    N51     7.84000   21.98600   28.57000
      C    C52     8.02100   22.74700   29.63800
      N    N53     8.75600   22.32200   30.66200
      N    N54     7.43700   23.93800   29.66400
      N    N55     9.80000   16.55800   24.98800
      C    C56    10.75500   15.81100   24.21000
      C    C57    10.16900   15.46500   22.82900
      O    O58    10.67000   15.96500   21.79100
      C    C59    11.11400   14.55700   24.91700
      O    O60    11.59300   14.90500   26.23400
      C    C61    12.17200   13.78400   24.11600
      N    N62     9.07000   14.70800   22.80500
      C    C63     8.48000   14.31700   21.53900
      C    C64     8.25300   15.56000   20.67300
      O    O65     8.44200   15.52300   19.46300
      C    C66     7.14600   13.53400   21.76800
      C    C67     6.42100   13.23400   20.47000
      C    C68     7.42000   12.27000   22.52800
      N    N69     7.88300   16.67200   21.28900
      C    C70     7.77600   17.95700   20.57700
      C    C71     9.08200   18.52400   19.98100
      O    O72     9.08000   19.12700   18.85400
      N    N73    10.21100   18.35900   20.65800
      C    C74    11.41800   18.92500   20.06500
      C    C75    12.06200   17.92000   19.07300
      O    O76    12.53700   18.31900   18.01200
      C    C77    12.40700   19.34000   21.14300
      O    O78    12.46400   18.26700   22.08600
      N    N79    12.06900   16.62200   19.39500
      C    C80    12.37900   15.62700   18.33300
      C    C81    11.47800   15.78000   17.05900
      O    O82    11.98000   16.06200   15.99000
      C    C83    12.30700   14.17300   18.82000
      C    C84    12.60900   13.23900   17.64600
      C    C85    13.25600   13.94000   19.94500
      N    N86    10.16600   15.63900   17.16800
      C    C87     9.28900   15.80600   15.97000
      C    C88     9.60200   17.07100   15.17900
      O    O89     9.68900   17.01500   13.95100
      C    C90     7.85300   15.85400   16.34500
      N    N91     9.78200   18.20400   15.86900
      C    C92    10.06400   19.45100   15.17300
      C    C93    11.38300   19.35600   14.45100
      O    O94    11.47500   19.75600   13.26200
      C    C95    10.01000   20.64200   16.12800
      C    C96    10.88700   21.83200   15.76300
      C    C97    10.10200   23.14100   15.47900
      C    C98    10.91700   24.42700   15.79900
      N    N99    12.26600   24.42100   15.07600
      N    N100    12.41100   18.82100   15.11800
      C    C101    13.72900   18.80500   14.47400
      C    C102    13.67200   17.86400   13.29700
      O    O103    13.99300   18.27000   12.22600
      C    C104    14.84500   18.47200   15.44300
      O    O105    14.77100   17.11100   15.80900
      N    N106    13.11800   16.65600   13.46200
      C    C107    12.86700   15.71900   12.35100
      C    C108    12.17100   16.49800   11.22200
      O    O109    12.60800   16.45400   10.05500
      C    C110    11.97100   14.59900   12.85900
      C    C111    12.36900   13.10000   12.58900
      S    S112    12.91900   12.14700   14.06400
      C    C113    11.42900   11.26200   14.52900
      N    N114    11.12800   17.27600   11.56000
      C    C115    10.38300   18.10200   10.55300
      C    C116    11.24700   19.06000    9.71700
      O    O117    11.23400   19.04100    8.48900
      N    N118    11.99900   19.91100   10.41100
      C    C119    12.92000   20.86000    9.79700
      C    C120    13.87500   20.13700    8.85900
      O    O121    14.01300   20.54700    7.68600
      C    C122    13.69300   21.56300   10.91500
      C    C123    12.82900   22.57800   11.66400
      O    O124    11.75800   22.96800   11.10400
      O    O125    13.21500   23.00100   12.80200
      N    N126    14.45600   19.02100    9.34100
      C    C127    15.42600   18.26400    8.57300
      C    C128    14.84500   17.73500    7.25400
      O    O129    15.45400   17.86200    6.15900
      C    C130    15.98500   17.12500    9.41600
      C    C131    17.16700   16.43900    8.77800
      C    C132    18.48100   16.88500    9.03100
      C    C133    16.98300   15.35500    7.92900
      C    C134    19.61700   16.23000    8.39900
      C    C135    18.06000   14.71400    7.31000
      C    C136    19.37200   15.12900    7.56000
      O    O137    20.40000   14.42700    6.92900
      N    N138    13.66100   17.15900    7.35000
      C    C139    12.98700   16.67100    6.18500
      C    C140    12.67700   17.80700    5.24100
      O    O141    12.88000   17.68800    4.00300
      C    C142    11.69800   15.92000    6.57500
      C    C143    11.94200   14.55700    7.26300
      C    C144    10.63700   13.87900    7.57900
      C    C145    12.77000   13.61600    6.43500
      N    N146    12.23200   18.93000    5.81300
      C    C147    11.89700   20.08800    4.98800
      C    C148    13.10100   20.45700    4.16200
      O    O149    12.97800   20.83400    2.97400
      C    C150    11.45900   21.31200    5.82700
      C    C151    11.12900   22.48900    4.94700
      O    O152    11.92300   23.47000    4.94000
      O    O153    10.12600   22.38700    4.18900
      N    N154    14.27700   20.37800    4.78600
      C    C155    15.48200   20.80900    4.05600
      C    C156    15.98600   19.72300    3.12000
      O    O157    16.83600   19.99400    2.34000
      C    C158    16.59900   21.24000    5.01300
      O    O159    17.09300   20.06900    5.69400
      N    N160    15.47600   18.48900    3.23600
      C    C161    15.92200   17.36700    2.43400
      C    C162    14.76400   16.77100    1.63500
      O    O163    14.29900   15.62600    1.95000
      C    C164    16.51600   16.24300    3.30800
      C    C165    17.85500   16.54900    3.90900
      N    N166    18.00700   17.34400    5.03200
      C    C167    19.09900   16.14800    3.55500
      C    C168    19.29000   17.40400    5.34900
      N    N169    19.97200   16.68500    4.47000
      N    N170    14.31100   17.49200    0.57400
      C    C171    13.14700   17.09300   -0.24200
      C    C172    13.16900   15.65700   -0.74700
      O    O173    12.11600   15.05400   -0.81200
      C    C174    13.17300   18.08400   -1.43300
      C    C175    14.58100   18.72100   -1.35900
      C    C176    14.93200   18.73500    0.07200
      N    N177    14.32800   15.08600   -1.05500
      C    C178    14.31500   13.69500   -1.51900
      C    C179    13.84800   12.78300   -0.42600
      O    O180    12.82100   12.07100   -0.55700
      C    C181    15.68800   13.24400   -1.99200
      C    C182    15.65200   11.91100   -2.75400
      C    C183    17.07000   11.32700   -2.93900
      O    O184    18.05400   11.83100   -2.28100
      O    O185    17.17200   10.35900   -3.73100
      N    N186    14.57000   12.79600    0.67400
      C    C187    14.08500   12.11200    1.89600
      C    C188    12.63000   12.51700    2.27600
      O    O189    11.80700   11.69800    2.67200
      C    C190    15.01100   12.46300    3.03000
      O    O191    16.30900   12.10400    2.62400
      C    C192    14.66500   11.71300    4.21200
      N    N193    12.31200   13.78000    2.12400
      C    C194    10.98100   14.23600    2.53300
      C    C195     9.95500   13.58500    1.61400
      O    O196     8.86000   13.25700    2.06000
      C    C197    10.86600   15.78700    2.54600
      C    C198     9.46000   16.29900    3.02500
      O    O199     8.69100   15.56600    3.66000
      N    N200     9.14500   17.55500    2.72400
      N    N201    10.33300   13.39000    0.34200
      C    C202     9.46300   12.71300   -0.66800
      C    C203     9.22300   11.21100   -0.34600
      O    O204     8.10800   10.73700   -0.39100
      C    C205     9.97700   12.95900   -2.11900
      C    C206     9.61900   11.84500   -3.17000
      C    C207     8.11800   11.80300   -3.41000
      O    O208     7.47000   12.85300   -3.30200
      N    N209     7.54300   10.60400   -3.67800
      N    N210    10.29500   10.49600    0.00500
      C    C211    10.23400    9.08700    0.34800
      C    C212     9.47100    8.84000    1.67300
      O    O213     8.79300    7.80600    1.82600
      C    C214    11.67600    8.58000    0.46000
      C    C215    11.78900    7.16100    1.04500
      C    C216    12.33900    8.65900   -0.93200
      N    N217     9.56400    9.75600    2.63700
      C    C218     8.80500    9.55800    3.87600
      C    C219     7.38800    9.95100    3.54700
      O    O220     6.43000    9.35200    4.06300
      C    C221     9.29300   10.46600    4.99900
      C    C222    10.72300   10.27800    5.45100
      S    S223    10.66200    8.98100    6.63600
      C    C224    12.41000    8.62000    6.83900
      N    N225     7.23000   10.96900    2.70800
      C    C226     5.88300   11.34600    2.31100
      C    C227     5.13100   10.16400    1.65700
      O    O228     4.00800    9.88700    2.07900
      C    C229     5.86500   12.59500    1.42700
      O    O230     6.28500   13.68800    2.23800
      C    C231     4.44500   12.91700    0.88100
      N    N232     5.74800    9.47300    0.68500
      C    C233     5.07600    8.35100    0.00500
      C    C234     4.70700    7.29800    1.00100
      O    O235     3.61700    6.76600    0.89500
      C    C236     5.89700    7.75000   -1.08600
      N    N237     5.57100    7.03100    1.98900
      C    C238     5.23600    6.09700    3.07300
      C    C239     3.95300    6.48400    3.82700
      O    O240     3.10300    5.65200    4.07300
      C    C241     6.44400    5.86100    4.04500
      C    C242     6.00400    5.19600    5.34200
      C    C243     7.54500    5.02100    3.32700
      N    N244     3.79100    7.74700    4.19500
      C    C245     2.56400    8.15500    4.88300
      C    C246     1.30800    8.08700    3.96800
      O    O247     0.18300    7.93800    4.45500
      C    C248     2.68400    9.56000    5.45700
      C    C249     3.68100    9.95000    6.56100
      C    C250     3.76000   11.47800    6.70200
      C    C251     3.27900    9.28800    7.89300
      N    N252     1.48100    8.20900    2.65600
      C    C253     0.34100    8.17000    1.75200
      C    C254    -0.08200    6.72300    1.59800
      O    O255    -1.26800    6.38200    1.49900
      C    C256     0.70500    8.78100    0.41200
      C    C257     0.90100   10.30600    0.47000
      C    C258     1.45200   10.89000   -0.83000
      O    O259     1.91700   10.15500   -1.73000
      N    N260     1.42300   12.20200   -0.93700
      N    N261     0.90800    5.85300    1.63100
      C    C262     0.62400    4.45900    1.38300
      C    C263     0.43800    3.73500    2.70000
      O    O264     0.61300    2.54000    2.76200
      C    C265     1.70700    3.85500    0.50800
      C    C266     2.04300    4.77400   -0.62000
      C    C267     3.01600    4.20500   -1.62700
      O    O268     3.60400    4.95600   -2.39900
      N    N269     3.15700    2.88500   -1.66300
      N    N270     0.06100    4.46900    3.74400
      C    C271    -0.27800    3.88200    5.03000
      C    C272     0.82200    2.96900    5.56600
      O    O273     0.53300    1.91700    6.11200
      C    C274    -1.59100    3.05200    4.93800
      C    C275    -2.77400    3.67800    4.18200
      C    C276    -3.25100    4.97100    4.80600
      O    O277    -3.06700    6.04700    4.23300
      N    N278    -3.84100    4.88400    5.98500
      N    N279     2.08700    3.33400    5.40000
      C    C280     3.18700    2.42000    5.81400
      C    C281     2.97900    0.97100    5.30100
      O    O282     3.37400    0.00900    5.93800
      C    C283     3.38500    2.40900    7.35300
      C    C284     4.83300    2.09800    7.69500
      C    C285     2.96200    3.78000    7.96400
      N    N286     2.36300    0.83100    4.13700
      C    C287     2.29000   -0.45900    3.47700
      C    C288     3.60200   -0.90200    2.84400
      O    O289     4.53000   -0.09900    2.67600
      N    N290     3.66000   -2.17500    2.44300
      C    C291     4.79300   -2.94100    1.92000
      C    C292     5.70900   -2.21900    0.92100
      O    O293     6.92700   -2.25000    1.08800
      C    C294     4.10800   -4.13400    1.25300
      C    C295     2.90000   -4.36200    2.11200
      C    C296     2.44500   -3.00300    2.55600
      N    N297     5.13500   -1.59600   -0.10700
      C    C298     5.93300   -1.04400   -1.21000
      C    C299     6.76900    0.18200   -0.81100
      O    O300     7.90200    0.39300   -1.28300
      N    N301     6.19400    0.96800    0.09000
      C    C302     6.76900    2.21500    0.52900
      C    C303     7.80700    1.95400    1.62200
      O    O304     8.78600    2.72200    1.77600
      C    C305     5.67400    3.13800    1.05000
      O    O306     5.15200    2.66400    2.28300
      N    N307     7.62000    0.87900    2.39200
      C    C308     8.66600    0.54600    3.33900
      C    C309     9.97600    0.21800    2.60600
      O    O310    11.01600    0.73800    2.99000
      C    C311     8.21500   -0.51100    4.34900
      C    C312     9.39600   -1.23000    4.95500
      C    C313     7.34000    0.18500    5.44800
      N    N314     9.90500   -0.54500    1.50700
      C    C315    11.12100   -0.96600    0.77700
      C    C316    11.90700    0.20000    0.18900
      O    O317    13.13600    0.22200    0.16400
      C    C318    10.77000   -2.02800   -0.35800
      N    N319    11.15300    1.14500   -0.34600
      C    C320    11.70700    2.30700   -0.96300
      C    C321    12.48600    3.07500    0.10600
      O    O322    13.55600    3.62900   -0.12700
      C    C323    10.55700    3.09400   -1.56800
      O    O324    11.04700    4.07900   -2.45800
      N    N325    11.97500    3.01600    1.31800
      C    C326    12.57500    3.71800    2.42500
      C    C327    13.84600    3.01000    2.84800
      O    O328    14.88100    3.63300    3.03400
      C    C329    11.56900    3.70600    3.56300
      C    C330    11.39100    4.73300    4.67100
      C    C331    10.99000    3.94700    5.91300
      C    C332    12.63200    5.52200    4.89200
      N    N333    13.76500    1.70800    3.04500
      C    C334    14.97500    0.94000    3.37800
      C    C335    16.11200    1.31000    2.41700
      O    O336    17.15300    1.75200    2.86600
      C    C337    14.71100   -0.57800    3.39700
      C    C338    13.32300   -0.95900    3.97500
      C    C339    12.40200   -1.69600    2.93800
      C    C340    11.49200   -2.81600    3.62100
      N    N341    10.42900   -3.55800    2.75500
      N    N342    15.88100    1.15700    1.11000
      C    C343    16.85100    1.49800    0.07200
      C    C344    17.29200    2.96900    0.14400
      O    O345    18.39100    3.29300   -0.18000
      C    C346    16.26900    1.20500   -1.32100
      N    N347    16.42800    3.87200    0.53200
      C    C348    16.85800    5.22700    0.54600
      C    C349    17.92600    5.40100    1.60900
      O    O350    18.85800    6.17200    1.38200
      C    C351    15.71200    6.16800    0.77700
      C    C352    16.12800    7.59600    0.83400
      N    N353    15.96400    8.38100    1.96200
      C    C354    16.68900    8.39300   -0.10900
      C    C355    16.39800    9.60600    1.70100
      N    N356    16.84200    9.63700    0.45400
      N    N357    17.80200    4.65200    2.71800
      C    C358    18.78400    4.68200    3.82500
      C    C359    20.08800    4.02700    3.51400
      O    O360    21.11900    4.58300    3.87400
      C    C361    18.22300    4.19500    5.18400
      C    C362    17.24700    5.16800    5.80500
      C    C363    17.36500    6.54200    5.56900
      C    C364    16.21800    4.73100    6.59200
      C    C365    16.43600    7.43600    6.11000
      C    C366    15.31300    5.63300    7.12100
      C    C367    15.41800    6.97600    6.88800
      N    N368    20.08700    2.88200    2.82400
      C    C369    21.36400    2.28700    2.41000
      C    C370    22.13600    3.28200    1.55600
      O    O371    23.37100    3.36200    1.62400
      C    C372    21.15500    1.00100    1.63400
      C    C373    21.20000   -0.30800    2.50300
      C    C374    19.79700   -0.82300    2.93400
      O    O375    18.79000   -0.14800    2.56900
      O    O376    19.70700   -1.90000    3.60900
      N    N377    21.42900    4.05900    0.74100
      C    C378    22.16100    4.86400   -0.21200
      C    C379    22.46900    6.22300    0.35200
      O    O380    23.19400    6.97500   -0.25800
      C    C381    21.41300    4.99200   -1.51500
      N    N382    21.88000    6.55500    1.49200
      C    C383    22.11500    7.85500    2.13200
      C    C384    22.41500    7.74100    3.63200
      O    O385    21.63900    8.28000    4.46100
      C    C386    20.92500    8.73900    1.93600
      C    C387    20.68900    9.05800    0.48000
      O    O388    21.08300   10.11100   -0.02100
      N    N389    20.02800    8.16200   -0.20800
      N    N390    23.57100    7.09400    3.96600
      C    C391    23.96500    6.72300    5.36100
      C    C392    24.10800    7.97500    6.22700
      O    O393    23.95900    7.92500    7.48400
      C    C394    25.35100    6.04300    5.21200
      C    C395    25.72800    6.07900    3.71900
      C    C396    24.61300    6.78100    2.93700
      N    N397    24.39800    9.09400    5.58000
      C    C398    24.32300   10.39200    6.30100
      C    C399    22.88600   10.74000    6.75600
      O    O400    22.63000   11.02500    7.95700
      C    C401    24.93900   11.54000    5.48000
      C    C402    24.76700   12.94000    6.14000
      C    C403    26.10400   13.63300    6.49800
      C    C404    25.97100   14.91900    7.30400
      N    N405    24.86700   15.80300    6.82700
      N    N406    21.92300   10.66800    5.84000
      C    C407    20.56400   10.94500    6.30200
      C    C408    20.08900   10.01100    7.42100
      O    O409    19.50100   10.47900    8.43100
      C    C410    19.49200   11.28400    5.15600
      C    C411    20.15900   11.88200    3.92000
      C    C412    18.50600   10.16800    4.87900
      N    N413    20.43100    8.72100    7.31000
      C    C414    19.98300    7.74400    8.30700
      C    C415    20.56800    8.06000    9.66300
      O    O416    19.85600    8.05900   10.65800
      C    C417    20.33500    6.32800    7.87700
      N    N418    21.86200    8.38400    9.70400
      C    C419    22.51300    8.67700   10.98900
      C    C420    22.07200   10.01200   11.52400
      O    O421    21.86100   10.14600   12.72700
      C    C422    24.03400    8.53900   10.94300
      O    O423    24.49900    9.04800    9.72900
      N    N424    21.85200   10.98100   10.64900
      C    C425    21.29500   12.29100   11.08300
      C    C426    19.88000   12.12500   11.74600
      O    O427    19.57600   12.71900   12.80100
      C    C428    21.23100   13.24900    9.88800
      C    C429    22.57200   13.98100    9.60600
      O    O430    23.57400   13.80300   10.34600
      O    O431    22.63800   14.73100    8.59400
      N    N432    19.00700   11.33300   11.11200
      C    C433    17.67000   11.12000   11.67000
      C    C434    17.77000   10.33400   12.95000
      O    O435    17.08000   10.67300   13.96700
      C    C436    16.73100   10.43300   10.67100
      C    C437    16.31400   11.27200    9.44000
      C    C438    15.49000   10.44500    8.47400
      C    C439    15.51600   12.57000    9.78800
      N    N440    18.65500    9.32900   12.96000
      C    C441    18.90900    8.62000   14.20800
      C    C442    19.38200    9.56600   15.31900
      O    O443    18.86400    9.50000   16.42400
      C    C444    19.86700    7.45600   13.99700
      C    C445    19.83700    6.47000   15.10600
      N    N446    20.88400    6.31300   15.99600
      C    C447    18.85700    5.61600   15.51500
      C    C448    20.56900    5.38200   16.88700
      N    N449    19.33800    4.95800   16.63000
      N    N450    20.34300   10.45600   15.04600
      C    C451    20.74700   11.43400   16.07200
      C    C452    19.57400   12.29200   16.56300
      O    O453    19.48000   12.60500   17.74400
      C    C454    21.82900   12.34000   15.57500
      N    N455    18.67900   12.68200   15.66400
      C    C456    17.58400   13.51300   16.07700
      C    C457    16.57900   12.76500   16.92300
      O    O458    15.96300   13.32700   17.82100
      C    C459    16.92600   14.12800   14.87800
      C    C460    17.79000   15.14100   14.14600
      C    C461    17.01300   15.68000   12.97500
      C    C462    18.30100   16.28600   15.12100
      N    N463    16.47000   11.47200   16.70000
      C    C464    15.55300   10.66500   17.51600
      C    C465    16.11300   10.25200   18.87800
      O    O466    15.38300    9.83400   19.78000
      C    C467    15.07000    9.44900   16.72300
      O    O468    16.13900    8.55000   16.57600
      N    N469    17.41000   10.36600   19.06300
      C    C470    17.98800    9.92700   20.35200
      C    C471    17.33300   10.39800   21.67400
      O    O472    17.23800    9.60100   22.60800
      C    C473    19.49700   10.13300   20.38200
      C    C474    20.26100    9.04100   19.58400
      C    C475    19.95900    7.65400   20.12800
      O    O476    20.03300    7.44400   21.34400
      N    N477    19.56300    6.71900   19.24600
      N    N478    16.91000   11.68200   21.77900
      C    C479    16.39600   12.08700   23.09600
      C    C480    15.15100   11.25600   23.44600
      O    O481    14.94500   10.84200   24.59200
      C    C482    16.05500   13.56300   22.90000
      C    C483    17.02500   14.04600   21.70900
      C    C484    17.03900   12.82300   20.83200
      N    N485    14.34900   10.99400   22.43300
      C    C486    13.18400   10.15400   22.55100
      C    C487    13.55000    8.74500   22.98600
      O    O488    12.91900    8.17400   23.87100
      C    C489    12.48400   10.12500   21.19300
      C    C490    11.10700    9.52200   20.99500
      C    C491    10.06800    9.93600   22.07000
      C    C492    10.65400    9.93500   19.57200
      N    N493    14.57100    8.17200   22.38600
      C    C494    15.01800    6.85800   22.83000
      C    C495    15.67300    6.91800   24.24100
      O    O496    15.48600    5.99400   25.04900
      C    C497    15.93000    6.18300   21.77600
      O    O498    17.12400    6.95100   21.65300
      C    C499    15.21900    6.12200   20.37500
      N    N500    16.40200    7.99700   24.55600
      C    C501    16.91000    8.20000   25.93000
      C    C502    15.72800    8.11100   26.91100
      O    O503    15.72300    7.31800   27.87200
      C    C504    17.57300    9.58000   26.11400
      C    C505    18.93800    9.70800   25.43700
      O    O506    19.59100    8.68100   25.09400
      O    O507    19.37400   10.87700   25.25900
      N    N508    14.72000    8.93600   26.64300
      C    C509    13.59500    9.06400   27.51000
      C    C510    12.99800    7.72000   27.92600
      O    O511    12.98400    7.40200   29.11000
      C    C512    12.52200    9.91600   26.84600
      C    C513    11.40400   10.09800   27.84800
      C    C514    11.80000   11.21700   28.82100
      C    C515    10.12700   10.38800   27.10500
      N    N516    12.50800    6.94500   26.95300
      C    C517    11.86900    5.66600   27.23600
      C    C518    12.90800    4.63700   27.64500
      O    O519    12.90100    3.52600   27.12300
      C    C520    11.05800    5.15900   26.02600
      O    O521     9.90500    4.40400   26.44600
      N    N522    13.80400    5.04900   28.54600
      C    C523    14.82600    4.23400   29.17500
      C    C524    14.54000    5.02600   30.45500
      O    O525    13.89900    4.51100   31.39600
      C    C526    16.05200    3.95200   28.20600
      O    O527    15.75600    2.82800   27.36500
      C    C528    17.36200    3.64500   28.97200
      N    N529    14.98100    6.29600   30.47700
      C    C530    15.37900    7.08900   31.64400
      C    C531    14.11400    6.89200   32.48700
      O    O532    14.17900    6.91900   33.71500
      C    C533    15.59000    8.56700   31.29200
      C    C534    16.08400    9.46700   32.45900
      C    C535    16.91400   10.69500   31.96500
      N    N536    16.10700   11.77400   31.36600
      C    C537    15.94100   11.99200   30.05200
      N    N538    16.52200   11.22000   29.12400
      N    N539    15.18500   13.00900   29.66200
      N    N540    12.97400    6.67800   31.81800
      C    C541    11.66800    6.48500   32.47300
      C    C542    11.07400    5.11900   32.15600
      O    O543    10.47300    4.48000   33.02300
      C    C544    10.64400    7.51400   31.99600
      S    S545    11.14000    9.17700   32.05500
      N    N546    11.19000    4.71500   30.88600
      C    C547    10.75600    3.39000   30.40100
      C    C548     9.33500    2.98200   30.83800
      O    O549     9.18500    2.07000   31.65800
      C    C550    11.76700    2.31500   30.85200
      O    O551    11.64200    2.03900   32.24600
      N    N552     8.30100    3.62900   30.30000
      C    C553     6.94300    3.37800   30.80100
      C    C554     5.97800    2.62000   29.84700
      O    O555     5.29900    1.68700   30.27700
      C    C556     6.33200    4.66300   31.38300
      C    C557     7.36200    5.64600   31.96200
      C    C558     7.60200    6.75500   30.94800
      C    C559     6.93100    6.24500   33.29900
      N    N560     5.86900    3.04700   28.57000
      C    C561     5.25700    2.19900   27.55800
      C    C562     6.07800    2.25500   26.26000
      O    O563     7.29500    2.48300   26.27900
      C    C564     3.94100    2.92500   27.30500
      C    C565     4.39100    4.41800   27.31400
      C    C566     5.69200    4.46100   28.17400
      N    N567     5.39100    2.04300   25.14600
      C    C568     5.95100    2.23800   23.82200
      C    C569     6.47700    3.67900   23.67900
      O    O570     5.90900    4.60900   24.26400
      C    C571     4.88500    1.91800   22.71700
      C    C572     3.44800    2.01500   23.25800
      C    C573     5.06900    0.49100   22.19000
      C    C574     2.99900    3.37600   23.79900
      N    N575     7.57000    3.86000   22.93700
      C    C576     7.98000    5.20500   22.52300
      C    C577     6.86400    5.78400   21.62900
      O    O578     7.02200    6.85700   21.02700
      C    C579     9.37600    5.19600   21.84900
      O    O580    10.44100    5.28600   22.79100
      N    N581     5.73000    5.06800   21.59100
      C    C582     4.66400    5.26000   20.59800
      C    C583     3.42000    6.06000   20.95000
      O    O584     3.42800    7.29100   20.85700
      N    N585     2.35000    5.35000   21.31800
      C    C586     1.01800    5.93600   21.58100
      C    C587     1.05700    7.14700   22.49000
      O    O588     0.17500    8.00000   22.42500
      C    C589     0.03600    4.86900   22.14300
      C    C590    -1.14500    5.05500   23.15900
      C    C591    -0.72000    5.48800   24.58700
      C    C592    -2.30000    5.94300   22.67300
      N    N593     2.06300    7.20400   23.35200
      C    C594     2.28200    8.37400   24.18500
      C    C595     2.16200    9.62000   23.31000
      O    O596     1.73000   10.68000   23.75400
      C    C597     3.65200    8.28000   24.84900
      C    C598     4.66200    7.42100   24.07600
      C    C599     5.75300    8.23400   23.38600
      O    O600     5.51900    8.91900   22.38600
      N    N601     6.96000    8.13600   23.91400
      N    N602     2.50600    9.44200   22.03800
      C    C603     2.44000   10.49300   21.04000
      C    C604     1.10300   10.56400   20.28700
      O    O605     1.02700   11.23500   19.25500
      C    C606     3.60100   10.36700   20.06200
      N    N607     0.06100    9.88800   20.78500
      C    C608    -1.31700   10.14100   20.31800
      C    C609    -1.62500   11.64200   20.53000
      O    O610    -2.58800   12.19900   19.96500
      C    C611    -2.38600    9.19900   20.98100
      C    C612    -3.66400    9.17000   20.13400
      C    C613    -2.66600    9.57000   22.46200
      C    C614    -4.84900    8.47500   20.77100
      N    N615    -0.77300   12.26100   21.35700
      C    C616    -0.63400   13.71400   21.47200
      C    C617     0.80700   14.23200   21.34400
      O    O618     1.82900   13.54500   21.51200
