# CIF file generated by openbabel 2.3.2, see http://openbabel.sf.net
data_I
_chemical_name_common '../proteins/pdb/3OGI.pdb'
_cell_length_a 66.383
_cell_length_b 66.383
_cell_length_c 162.61
_cell_angle_alpha 90
_cell_angle_beta 90
_cell_angle_gamma 120
_space_group_name_H-M_alt 'P 32 2 1'
_space_group_name_Hall 'P 32 2"'
loop_
    _symmetry_equiv_pos_as_xyz
    'x,y,z'
    '-y,x-y,2/3+z'
    '-x+y,-x,1/3+z'
    'y,x,-z'
    'x-y,-y,1/3-z'
    '-x,-x+y,2/3-z'
loop_
    _atom_site_type_symbol
    _atom_site_label
    _atom_site_Cartn_x
    _atom_site_Cartn_y
    _atom_site_Cartn_z
      N    N1    -3.97000  -13.63400   62.95600
      C    C2    -4.73200  -12.73600   62.09700
      C    C3    -6.12300  -12.38600   62.65400
      O    O4    -6.56900  -11.23500   62.58000
      C    C5    -4.89100  -13.31000   60.69700
      C    C6    -6.08900  -12.77200   59.98100
      N    N7    -7.30500  -13.42500   59.97100
      C    C8    -6.27400  -11.61800   59.29700
      C    C9    -8.18100  -12.70600   59.29000
      N    N10    -7.58100  -11.60700   58.86900
      N    N11    -6.82900  -13.38500   63.16400
      C    C12    -7.95100  -13.10200   64.02600
      C    C13    -7.36800  -12.44700   65.27400
      O    O14    -8.05400  -11.70300   65.96900
      N    N15    -6.09100  -12.72300   65.54800
      C    C16    -5.37000  -12.08800   66.65700
      C    C17    -5.02400  -10.63500   66.34800
      O    O18    -5.06400   -9.77400   67.23200
      C    C19    -4.09600  -12.86100   66.99700
      N    N20    -4.66400  -10.36700   65.10000
      C    C21    -4.35700   -9.00600   64.70800
      C    C22    -5.59400   -8.15900   64.83400
      O    O23    -5.54500   -7.03600   65.34700
      C    C24    -3.87300   -8.95300   63.27700
      C    C25    -2.50400   -9.55400   63.09800
     Se   Se26    -1.79600   -9.33100   61.29500
      C    C27    -1.66600   -7.39200   61.17100
      N    N28    -6.71200   -8.71300   64.37900
      C    C29    -7.96200   -7.96900   64.36000
      C    C30    -8.45900   -7.66600   65.77400
      O    O31    -9.09600   -6.64300   66.01200
      C    C32    -9.03000   -8.70900   63.54700
      C    C33    -8.70900   -8.60100   62.04800
      C    C34   -10.38500   -8.12500   63.80400
      C    C35    -9.53100   -9.53200   61.16300
      N    N36    -8.14800   -8.53800   66.72400
      C    C37    -8.57900   -8.28800   68.07900
      C    C38    -7.66700   -7.23800   68.68800
      O    O39    -8.11700   -6.37400   69.45700
      C    C40    -8.58900   -9.57600   68.90400
      C    C41    -9.60100  -10.60300   68.41000
      C    C42    -9.76700  -11.77900   69.37500
      N    N43    -8.56600  -12.61000   69.49600
      C    C44    -8.28100  -13.63800   68.69900
      N    N45    -9.11000  -13.96700   67.71100
      N    N46    -7.16500  -14.33600   68.88700
      N    N47    -6.38600   -7.29900   68.32500
      C    C48    -5.43000   -6.34300   68.86400
      C    C49    -5.74400   -4.93700   68.34000
      O    O50    -5.70300   -3.96500   69.09600
      C    C51    -4.00400   -6.75400   68.54400
      N    N52    -6.09800   -4.84700   67.06000
      C    C53    -6.45600   -3.56900   66.44100
      C    C54    -7.68700   -2.96600   67.08700
      O    O55    -7.72500   -1.76400   67.35700
      C    C56    -6.68200   -3.72800   64.94500
      C    C57    -5.40000   -3.99900   64.17200
      C    C58    -5.68600   -4.46500   62.75600
      O    O59    -6.75400   -5.01600   62.47500
      N    N60    -4.74100   -4.23300   61.85200
      N    N61    -8.68600   -3.80700   67.33400
      C    C62    -9.90600   -3.38600   68.02900
      C    C63    -9.62100   -2.92200   69.45700
      O    O64   -10.27200   -1.99800   69.96000
      C    C65   -10.93300   -4.52000   68.05200
      N    N66    -8.66800   -3.57300   70.11800
      C    C67    -8.26800   -3.13300   71.43700
      C    C68    -7.61800   -1.77400   71.30500
      O    O69    -7.87700   -0.86600   72.08800
      N    N70    -6.77900   -1.60700   70.29200
      C    C71    -6.15500   -0.31100   70.12800
      C    C72    -7.18800    0.75800   69.75800
      O    O73    -7.10400    1.89400   70.23600
      C    C74    -4.95500   -0.36500   69.17500
      C    C75    -3.85900   -1.25900   69.79200
      C    C76    -2.60200   -1.37200   68.94100
      C    C77    -3.49100   -0.75500   71.17100
      N    N78    -8.19300    0.38900   68.96400
      C    C79    -9.21300    1.35700   68.56700
      C    C80    -9.92400    1.89600   69.79400
      O    O81   -10.14900    3.09700   69.91200
      C    C82   -10.22700    0.77200   67.57700
      C    C83   -11.22700    1.78500   66.98300
      C    C84   -10.49800    2.91500   66.28200
      C    C85   -12.19900    1.12700   66.02700
      N    N86   -10.25100    1.00900   70.72400
      C    C87   -10.95200    1.41300   71.93700
      C    C88   -10.09600    2.30800   72.86900
      O    O89   -10.63100    3.20300   73.56000
      C    C90   -11.49100    0.17800   72.67000
      C    C91   -12.40000    0.48600   73.86000
      C    C92   -13.58000    1.40700   73.52400
      O    O93   -13.93800    1.54800   72.32900
      O    O94   -14.15400    1.98200   74.47700
      N    N95    -8.78100    2.07600   72.90100
      C    C96    -7.91500    3.00200   73.63200
      C    C97    -8.04000    4.38100   72.98800
      O    O98    -8.13400    5.40400   73.66600
      C    C99    -6.44800    2.53200   73.64500
      N    N100    -8.07500    4.40200   71.66800
      C    C101    -8.18600    5.68000   70.98500
      C    C102    -9.52400    6.38400   71.28400
      O    O103    -9.57700    7.59000   71.48000
      C    C104    -7.97400    5.52000   69.47500
      C    C105    -8.27200    6.81400   68.72100
      C    C106    -7.43800    8.00000   69.20400
      O    O107    -6.53100    7.80900   70.03900
      O    O108    -7.69700    9.13300   68.75100
      N    N109   -10.59600    5.60800   71.30600
      C    C110   -11.91200    6.08800   71.68600
      C    C111   -11.87100    6.69500   73.09000
      O    O112   -12.42600    7.76900   73.34700
      C    C113   -12.87700    4.90600   71.64200
      C    C114   -14.21600    5.17900   72.24000
      N    N115   -14.97200    4.19200   72.83600
      C    C116   -14.94800    6.31600   72.32100
      C    C117   -16.10300    4.71400   73.27800
      N    N118   -16.11400    6.00000   72.97600
      N    N119   -11.20700    6.00500   74.00300
      C    C120   -11.11000    6.50500   75.36200
      C    C121   -10.26800    7.77100   75.38600
      O    O122   -10.58400    8.71700   76.09500
      C    C123   -10.54800    5.43500   76.28900
      C    C124   -11.48200    4.25400   76.44600
      C    C125   -10.77100    2.97900   76.93400
      O    O126    -9.54100    2.95100   77.14600
      N    N127   -11.55100    1.91900   77.11100
      N    N128    -9.21200    7.79200   74.58500
      C    C129    -8.40100    8.99500   74.45100
      C    C130    -9.27500   10.17300   73.98100
      O    O131    -9.18700   11.29100   74.50300
      C    C132    -7.23600    8.76000   73.48700
      N    N133   -10.12700    9.91800   73.00400
      C    C134   -11.02200   10.96300   72.51300
      C    C135   -11.97700   11.47100   73.59800
      O    O136   -12.13800   12.67000   73.77700
      C    C137   -11.77800   10.51300   71.25500
      C    C138   -10.79700   10.43700   70.07000
      C    C139   -12.94900   11.47400   70.96100
      C    C140   -11.30300    9.62700   68.90000
      N    N141   -12.58400   10.56700   74.34900
      C    C142   -13.46500   10.98800   75.43700
      C    C143   -12.77400   11.94100   76.41300
      O    O144   -13.38000   12.90500   76.88400
      C    C145   -14.01600    9.79000   76.21800
      C    C146   -14.83000   10.26500   77.43300
      C    C147   -14.83700    8.90400   75.29700
      N    N148   -11.51200   11.66800   76.72200
      C    C149   -10.75900   12.54400   77.60800
      C    C150   -10.70300   13.94400   77.01800
      O    O151   -10.92300   14.92300   77.71900
      C    C152    -9.34800   12.01700   77.85100
      C    C153    -9.15300   11.27200   79.17400
      C    C154    -7.82300   10.51000   79.18000
      N    N155    -8.04000    9.08300   78.98400
      C    C156    -7.34700    8.31000   78.15700
      N    N157    -6.35000    8.80100   77.43500
      N    N158    -7.64700    7.02700   78.07400
      N    N159   -10.44200   14.05200   75.72400
      C    C160   -10.34200   15.37400   75.12700
      C    C161   -11.68500   16.12000   75.08600
      O    O162   -11.74400   17.33300   75.33900
      C    C163    -9.68600   15.30900   73.75100
      C    C164    -8.17400   15.40600   73.83200
      O    O165    -7.66000   15.97900   74.81800
      O    O166    -7.49700   14.91200   72.91200
      N    N167   -12.75000   15.38200   74.78400
      C    C168   -14.09100   15.93400   74.74900
      C    C169   -14.43400   16.50600   76.12100
      O    O170   -14.86800   17.65100   76.22900
      C    C171   -15.12600   14.85500   74.31600
      C    C172   -16.53900   15.22300   74.74800
      C    C173   -15.04500   14.59900   72.81300
      N    N174   -14.22100   15.71500   77.16700
      C    C175   -14.45000   16.17800   78.53700
      C    C176   -13.63200   17.41600   78.82700
      O    O177   -14.11500   18.35500   79.45200
      C    C178   -14.05200   15.10800   79.55300
      C    C179   -14.94500   13.88000   79.62200
      C    C180   -14.47300   12.95300   80.72700
      C    C181   -16.38200   14.31100   79.84000
      N    N182   -12.37700   17.39600   78.40000
      C    C183   -11.49600   18.52800   78.60500
      C    C184   -12.01600   19.75800   77.85500
      O    O185   -11.73200   20.88700   78.24100
      C    C186   -10.05800   18.19000   78.16900
      N    N187   -12.78400   19.54200   76.79400
      C    C188   -13.33400   20.65800   76.02300
      C    C189   -14.73400   21.09600   76.48000
      O    O190   -15.59200   21.37300   75.65100
      C    C191   -13.35000   20.31600   74.53000
      N    N192   -14.96200   21.16700   77.78800
      C    C193   -16.27500   21.51500   78.31000
      C    C194   -16.86900   22.78200   77.71600
      O    O195   -17.86900   22.74100   76.98500
      N    N196   -25.76000   19.99200   76.57900
      C    C197   -26.46300   19.08000   75.68200
      C    C198   -25.50300   18.40300   74.69800
      O    O199   -25.91600   17.94500   73.62600
      C    C200   -27.57900   19.81200   74.93600
      N    N201   -24.22500   18.34400   75.07800
      C    C202   -23.17500   17.71200   74.27200
      C    C203   -22.93500   16.26100   74.69200
      O    O204   -21.94100   15.64900   74.30300
      C    C205   -21.85200   18.48000   74.40500
      S    S206   -21.76400   20.12300   73.62900
      N    N207   -23.83000   15.71200   75.50200
      C    C208   -23.71300   14.31500   75.90300
      C    C209   -24.12500   13.40400   74.74800
      O    O210   -23.89800   12.19200   74.77600
      C    C211   -24.55400   14.03500   77.15300
      C    C212   -24.08400   14.79100   78.39700
      C    C213   -25.20400   15.56700   79.07700
      O    O214   -26.28900   15.03300   79.31400
      N    N215   -24.94500   16.83600   79.38900
      N    N216   -24.72600   13.99400   73.72200
      C    C217   -25.10100   13.22600   72.54600
      C    C218   -23.88300   12.96200   71.65700
      O    O219   -23.79300   11.93200   70.98700
      C    C220   -26.23100   13.91800   71.77700
      C    C221   -27.61000   13.52400   72.28400
      C    C222   -28.61300   14.67600   72.26700
      O    O223   -28.33400   15.71800   71.62800
      O    O224   -29.68400   14.53300   72.90300
      N    N225   -22.94100   13.89300   71.65300
      C    C226   -21.73400   13.67800   70.89600
      C    C227   -21.08500   12.39000   71.41200
      O    O228   -20.76400   11.48600   70.63700
      C    C229   -20.78800   14.86700   71.03200
      C    C230   -19.58000   14.75300   70.16700
      C    C231   -18.42800   14.16800   70.64700
      C    C232   -19.61100   15.19400   68.85200
      C    C233   -17.29900   14.03600   69.83300
      C    C234   -18.48900   15.06900   68.03000
      C    C235   -17.33300   14.48700   68.52600
      N    N236   -20.93600   12.30700   72.73000
      C    C237   -20.35200   11.14900   73.39500
      C    C238   -21.11700    9.86100   73.11800
      O    O239   -20.51700    8.80000   72.92600
      C    C240   -20.33000   11.37600   74.91700
      C    C241   -19.22200   12.36200   75.28200
      C    C242   -20.17400   10.06000   75.67300
      C    C243   -19.50600   13.13000   76.55300
      N    N244   -22.44400    9.94600   73.12300
      C    C245   -23.26100    8.76800   72.87500
      C    C246   -23.11000    8.27700   71.43100
      O    O247   -22.94800    7.08300   71.18300
      C    C248   -24.75900    9.02000   73.20900
      O    O249   -24.94400    8.97200   74.62600
      C    C250   -25.66000    7.95500   72.56500
      N    N251   -23.16800    9.19400   70.47800
      C    C252   -23.05700    8.80300   69.07800
      C    C253   -21.66000    8.28700   68.77500
      O    O254   -21.48600    7.30000   68.07600
      C    C255   -23.37600    9.97800   68.16400
      C    C256   -24.71000    9.87100   67.47600
      C    C257   -24.72000   10.64200   66.17100
      O    O258   -23.85500   10.44900   65.31000
      N    N259   -25.68700   11.53600   66.02500
      N    N260   -20.66400    8.98600   69.29500
      C    C261   -19.29800    8.53500   69.20500
      C    C262   -19.25500    7.08300   69.67900
      O    O263   -18.81700    6.18400   68.95200
      C    C264   -18.42900    9.40800   70.10300
      C    C265   -16.94000    9.28800   69.85800
      C    C266   -16.63500    9.81500   68.48300
      C    C267   -16.17400   10.05900   70.92100
      N    N268   -19.74600    6.86500   70.89600
      C    C269   -19.79200    5.54100   71.48200
      C    C270   -20.38600    4.49800   70.56100
      O    O271   -19.78100    3.45500   70.34500
      N    N272   -21.56300    4.78600   70.01200
      C    C273   -22.29300    3.82800   69.18200
      C    C274   -21.42200    3.29700   68.07400
      O    O275   -21.37000    2.08400   67.84700
      C    C276   -23.53700    4.46100   68.55500
      C    C277   -24.65700    4.77400   69.52400
      C    C278   -25.86100    5.37700   68.79500
      N    N279   -26.79600    6.02300   69.71800
      C    C280   -27.81500    5.40700   70.31300
      N    N281   -28.04000    4.11800   70.08500
      N    N282   -28.61300    6.08000   71.13700
      N    N283   -20.74300    4.21100   67.38100
      C    C284   -19.94600    3.83500   66.21800
      C    C285   -18.73500    2.98700   66.57200
      O    O286   -18.45400    1.98900   65.91500
      C    C287   -19.54100    5.06600   65.42300
      C    C288   -20.72600    5.73100   64.76600
      O    O289   -21.20400    5.28400   63.72400
      N    N290   -21.22000    6.79500   65.37900
      N    N291   -18.02300    3.37600   67.61900
      C    C292   -16.94500    2.53700   68.09600
      C    C293   -17.51000    1.19200   68.49800
      O    O294   -16.96400    0.16700   68.12700
      C    C295   -16.21500    3.17600   69.26200
      C    C296   -15.18300    4.18500   68.84700
      C    C297   -13.92400    3.77400   68.42200
      C    C298   -15.46400    5.54500   68.89200
      C    C299   -12.97200    4.68900   68.05400
      C    C300   -14.51600    6.46700   68.52800
      C    C301   -13.25900    6.03600   68.10300
      N    N302   -18.61800    1.18400   69.23300
      C    C303   -19.19000   -0.08800   69.65600
      C    C304   -19.50400   -0.98300   68.45400
      O    O305   -19.24500   -2.19000   68.48600
      C    C306   -20.41300    0.10500   70.55400
      C    C307   -20.85400   -1.16700   71.27900
      C    C308   -19.67600   -1.95100   71.87700
      O    O309   -19.62000   -3.18300   71.78000
      N    N310   -18.73600   -1.23800   72.50400
      N    N311   -20.02600   -0.39300   67.38300
      C    C312   -20.28200   -1.16700   66.17800
      C    C313   -18.99400   -1.77200   65.63600
      O    O314   -18.96500   -2.92600   65.21700
      C    C315   -20.91700   -0.32600   65.07100
      C    C316   -20.77700   -1.03800   63.72300
      C    C317   -22.35900   -0.05400   65.38000
      N    N318   -17.92200   -0.99400   65.63000
      C    C319   -16.67300   -1.51600   65.09700
      C    C320   -16.19700   -2.64600   65.99200
      O    O321   -15.86800   -3.72000   65.51100
      C    C322   -15.58500   -0.42800   64.97200
      C    C323   -15.99200    0.62000   63.92600
      C    C324   -14.24000   -1.06300   64.63200
      C    C325   -15.07100    1.85900   63.87500
      N    N326   -16.19300   -2.39500   67.29900
      C    C327   -15.73900   -3.36600   68.28400
      C    C328   -16.53100   -4.65800   68.16000
      O    O329   -15.95600   -5.74300   68.18900
      C    C330   -15.84600   -2.80300   69.71600
      C    C331   -14.98300   -3.54100   70.73400
      C    C332   -15.52000   -4.53800   71.54700
      C    C333   -13.62200   -3.24800   70.87000
      C    C334   -14.72500   -5.22400   72.47300
      C    C335   -12.82100   -3.92700   71.79300
      C    C336   -13.37600   -4.91500   72.59000
      O    O337   -12.58400   -5.58800   73.50400
      N    N338   -17.84800   -4.54100   68.01700
      C    C339   -18.71300   -5.71600   67.90300
      C    C340   -18.25600   -6.62400   66.77200
      O    O341   -18.00300   -7.80900   66.98400
      C    C342   -20.18800   -5.32000   67.69500
      C    C343   -20.97700   -5.04900   68.98400
      C    C344   -22.34300   -4.38500   68.74000
      O    O345   -22.75800   -4.24400   67.56400
      O    O346   -23.00100   -3.99700   69.73100
      N    N347   -18.13500   -6.05800   65.57600
      C    C348   -17.85400   -6.84100   64.37600
      C    C349   -16.47000   -7.48600   64.35700
      O    O350   -16.13800   -8.23300   63.44000
      C    C351   -18.03000   -5.97000   63.13600
      C    C352   -19.41200   -5.35200   63.01000
      C    C353   -20.49100   -6.37600   62.69900
      O    O354   -20.38300   -7.54700   63.07200
      N    N355   -21.53800   -5.93800   62.00400
      N    N356   -15.66400   -7.19600   65.36900
      C    C357   -14.29800   -7.70000   65.40700
      C    C358   -14.01800   -8.47400   66.69200
      O    O359   -13.00800   -9.17400   66.80300
      C    C360   -13.31400   -6.55700   65.24400
      N    N361   -14.91900   -8.33200   67.66000
      C    C362   -14.86500   -9.10900   68.89500
      C    C363   -13.57400   -8.89500   69.68700
      O    O364   -13.23400   -7.76800   70.05600
      C    C365   -15.06400  -10.59500   68.58400
      C    C366   -16.29500  -10.85700   67.72100
      O    O367   -16.36100  -10.43500   66.55900
      N    N368   -17.26900  -11.57400   68.28300
