# CIF file generated by openbabel 2.3.2, see http://openbabel.sf.net
data_I
_chemical_name_common '../proteins/pdb/3ONR.pdb'
_cell_length_a 70.193
_cell_length_b 78.446
_cell_length_c 152.489
_cell_angle_alpha 90
_cell_angle_beta 90
_cell_angle_gamma 90
_space_group_name_H-M_alt 'P 21 21 21'
_space_group_name_Hall 'P 2ac 2ab'
loop_
    _symmetry_equiv_pos_as_xyz
    'x,y,z'
    '1/2-x,-y,1/2+z'
    '-x,1/2+y,1/2-z'
    '1/2+x,1/2-y,-z'
loop_
    _atom_site_type_symbol
    _atom_site_label
    _atom_site_Cartn_x
    _atom_site_Cartn_y
    _atom_site_Cartn_z
      N    N1    -9.66500   40.14700   37.60900
      C    C2   -10.85200   40.33500   36.68300
      C    C3   -10.77700   39.23500   35.62400
      O    O4   -10.88400   38.08300   35.97500
      C    C5   -10.84500   41.72800   36.01500
      N    N6   -10.57900   39.56700   34.35100
      C    C7   -10.14800   38.53700   33.36200
      C    C8    -8.61000   38.46100   33.24200
      O    O9    -7.94500   39.40200   32.85100
      C    C10   -10.77500   38.76700   31.97800
      O    O11   -12.18100   38.93400   32.14500
      N    N12    -8.10100   37.31000   33.60600
      C    C13    -6.69400   36.96700   33.44500
      C    C14    -6.56500   35.77400   32.51900
      O    O15    -7.39500   34.86700   32.58600
      C    C16    -6.10100   36.66000   34.87200
      C    C17    -4.64100   36.17100   34.71900
      C    C18    -6.18300   37.90600   35.71400
      N    N19    -5.50400   35.69600   31.69500
      C    C20    -5.38900   34.68600   30.68700
      C    C21    -4.08400   33.89000   30.85400
      O    O22    -3.10400   34.41300   31.42300
      C    C23    -5.30400   35.32900   29.32400
      C    C24    -6.50900   36.19000   29.04200
      C    C25    -6.59600   37.49200   29.53500
      C    C26    -7.53200   35.70600   28.18100
      C    C27    -7.72000   38.25700   29.30300
      C    C28    -8.71700   36.46500   27.96900
      C    C29    -8.76600   37.74400   28.48300
      O    O30    -9.89100   38.56200   28.26600
      N    N31    -4.11900   32.65900   30.42200
      C    C32    -2.92800   31.82100   30.43300
      C    C33    -2.41600   31.70100   29.03800
      O    O34    -3.20100   31.71400   28.07500
      C    C35    -3.28400   30.43000   30.99500
      C    C36    -2.02200   29.52400   31.07200
      C    C37    -2.31500   28.33000   31.97600
      C    C38    -1.28100   27.25300   31.77600
      N    N39     0.02900   27.55300   32.34600
      N    N40    -1.10800   31.68600   28.88100
      C    C41    -0.52800   31.62800   27.51000
      C    C42     0.25000   30.32400   27.43800
      O    O43     1.16700   30.09400   28.29400
      C    C44     0.53700   32.80300   27.33300
      C    C45     1.18000   32.77900   25.87500
      C    C46    -0.12600   34.07100   27.61000
      N    N47     0.00800   29.52700   26.39400
      C    C48     0.91700   28.39500   26.28900
      C    C49     1.42000   28.22100   24.85900
      O    O50     0.87300   28.82600   23.92400
      C    C51     0.16000   27.12700   26.66100
      C    C52    -1.02200   26.99700   25.72300
      C    C53    -0.29900   27.17700   28.07700
      C    C54    -1.53100   25.59400   25.68000
      N    N55     2.44100   27.38900   24.74000
      C    C56     3.06500   27.06500   23.47600
      C    C57     2.70200   25.57300   23.14900
      O    O58     2.71800   24.73100   24.05000
      C    C59     4.54000   27.18300   23.65100
      C    C60     5.06300   28.65100   23.39400
      O    O61     4.24800   29.57400   23.14500
      O    O62     6.30100   28.82400   23.43800
      N    N63     2.17900   25.31900   21.92300
      C    C64     1.85700   23.95300   21.51600
      C    C65     2.54000   23.69400   20.17300
      O    O66     2.80600   24.65900   19.41900
      C    C67     0.33100   23.76900   21.30900
      C    C68    -0.21200   24.89700   20.41600
      C    C69    -0.37500   23.84300   22.65000
      C    C70    -1.63600   24.66600   20.05400
      N    N71     2.76000   22.41200   19.87500
      C    C72     3.41200   22.03600   18.58200
      C    C73     2.46800   21.14200   17.84600
      O    O74     2.03500   20.11500   18.41400
      C    C75     4.79500   21.34200   18.85200
      C    C76     5.77700   22.40700   19.40500
      C    C77     5.28700   20.66800   17.51900
      C    C78     7.12800   21.73900   19.87500
      N    N79     2.12500   21.54600   16.58100
      C    C80     1.38300   20.61400   15.74000
      C    C81     2.36700   19.93100   14.77400
      O    O82     3.48500   20.45300   14.50700
      N    N83     1.99100   18.75400   14.29000
      C    C84     2.93100   18.07700   13.33900
      C    C85     2.07900   17.53900   12.15800
      O    O86     0.89800   17.25300   12.33300
      C    C87     3.68300   16.87700   14.00100
      O    O88     2.77300   15.74400   14.19900
      C    C89     4.30200   17.23600   15.35200
      N    N90     2.71000   17.25800   11.02700
      C    C91     1.95200   16.87400    9.80000
      C    C92     2.89600   16.33600    8.78300
      O    O93     3.93700   16.92300    8.57000
      C    C94     1.36700   18.11900    9.13500
      O    O95     0.53800   17.78700    8.01200
      N    N96     2.49300   15.28900    8.06100
      C    C97     3.33800   14.84600    6.96300
      C    C98     3.16300   15.78700    5.74500
      O    O99     3.90600   15.70700    4.77000
      C    C100     2.80200   13.43100    6.66300
      C    C101     1.34100   13.43600    7.22800
      C    C102     1.28500   14.46200    8.28000
      N    N103     2.17600   16.66900    5.80500
      C    C104     1.75500   17.41700    4.63400
      C    C105     2.36500   18.81700    4.52000
      O    O106     3.06600   19.14300    3.53800
      C    C107     0.23100   17.53200    4.65900
      O    O108    -0.32600   16.21300    4.77300
      C    C109    -0.33500   18.20100    3.37800
      N    N110     2.08200   19.65700    5.50800
      C    C111     2.40400   21.06400    5.45600
      C    C112     2.50100   21.65300    6.83600
      O    O113     1.89000   21.12900    7.79200
      C    C114     1.34900   21.88800    4.69200
      O    O115     0.05400   21.81800    5.30400
      N    N116     3.18000   22.78700    6.95200
      C    C117     3.17500   23.52300    8.25100
      C    C118     1.74800   24.06000    8.51100
      O    O119     1.31400   24.15800    9.67800
      C    C120     4.20100   24.66600    8.22500
      C    C121     5.59800   24.13200    8.48000
      C    C122     6.02400   23.45800    9.59400
      C    C123     6.71800   24.24900    7.63000
      N    N124     7.36000   23.13000    9.48700
      C    C125     7.80400   23.58900    8.27200
      C    C126     6.91600   24.79800    6.33400
      C    C127     9.05700   23.45900    7.68900
      C    C128     8.21700   24.66900    5.76000
      C    C129     9.25900   24.04900    6.48000
      N    N130     1.01900   24.45400    7.44700
      C    C131    -0.43200   24.90000    7.65200
      C    C132    -1.27900   23.81400    8.29400
      O    O133    -2.09800   24.08800    9.19600
      C    C134    -1.06200   25.23700    6.29000
      C    C135    -0.61700   26.64600    5.75800
      C    C136     0.71000   26.59300    4.98700
      O    O137     1.30500   25.49500    4.90400
      O    O138     1.10000   27.64000    4.38400
      N    N139    -1.11600   22.57200    7.81100
      C    C140    -1.87800   21.43800    8.34900
      C    C141    -1.45100   21.10500    9.80800
      O    O142    -2.28200   20.83800   10.67500
      C    C143    -1.68800   20.19000    7.49000
      C    C144    -2.65100   19.04900    8.02400
      C    C145    -2.34000   17.75800    7.37200
      O    O146    -1.57100   16.93900    7.90000
      N    N147    -2.93800   17.54200    6.21000
      N    N148    -0.15200   21.10200   10.04500
      C    C149     0.39200   20.92100   11.40000
      C    C150    -0.21000   22.00500   12.31400
      O    O151    -0.74500   21.69600   13.41200
      C    C152     1.91800   21.00400   11.36200
      N    N153    -0.22100   23.24300   11.81600
      C    C154    -0.78500   24.36000   12.61900
      C    C155    -2.28700   24.20000   12.86300
      O    O156    -2.74300   24.45200   13.99100
      C    C157    -0.51300   25.72300   11.92900
      N    N158    -3.05600   23.84800   11.82900
      C    C159    -4.51300   23.68900   11.98700
      C    C160    -4.81300   22.56700   12.96100
      O    O161    -5.77900   22.67800   13.74100
      C    C162    -5.20800   23.43400   10.66100
      N    N163    -3.98700   21.52300   12.96200
      C    C164    -4.19200   20.36900   13.89000
      C    C165    -4.01500   20.85400   15.33100
      O    O166    -4.83700   20.49100   16.17000
      C    C167    -3.16800   19.25100   13.64100
      C    C168    -3.30500   18.54100   12.28100
      C    C169    -4.43800   17.61800   12.16100
      O    O170    -4.54200   16.99100   11.08700
      O    O171    -5.21300   17.47900   13.14300
      N    N172    -2.93100   21.59700   15.56700
      C    C173    -2.64600   22.20300   16.90500
      C    C174    -3.80600   23.10800   17.33000
      O    O175    -4.32800   22.96300   18.44000
      C    C176    -1.35400   22.98100   16.91900
      N    N177    -4.18500   24.04600   16.46300
      C    C178    -5.37100   24.90000   16.80900
      C    C179    -6.64500   24.13700   17.08000
      O    O180    -7.31800   24.40900   18.08900
      C    C181    -5.65300   25.96500   15.72000
      C    C182    -6.98800   26.64100   15.97400
      C    C183    -4.44500   26.94900   15.62400
      N    N184    -6.99000   23.16600   16.25000
      C    C185    -8.23100   22.38900   16.52200
      C    C186    -8.22800   21.62900   17.86100
      O    O187    -9.22700   21.65800   18.62900
      C    C188    -8.50000   21.47800   15.35800
      C    C189    -9.15200   22.24500   14.15300
      C    C190   -10.16800   23.36800   14.58400
      O    O191   -11.17600   23.10600   15.28700
      N    N192    -9.88300   24.61700   14.16300
      N    N193    -7.07400   20.99800   18.15200
      C    C194    -6.82800   20.35600   19.45700
      C    C195    -7.01100   21.40700   20.62500
      O    O196    -7.75300   21.15600   21.60100
      C    C197    -5.42200   19.69600   19.52000
      C    C198    -5.07800   19.11900   20.94100
      C    C199    -6.13900   18.04400   21.39600
      N    N200    -6.00900   17.63100   22.82900
      C    C201    -6.40300   18.32200   23.92500
      N    N202    -6.95300   19.53100   23.84300
      N    N203    -6.28700   17.76700   25.13500
      N    N204    -6.38300   22.57100   20.51000
      C    C205    -6.56500   23.65500   21.48500
      C    C206    -8.07000   23.99600   21.66400
      O    O207    -8.61000   24.11400   22.79100
      C    C208    -5.78400   24.89500   21.05700
      N    N209    -8.77200   24.16100   20.54100
      C    C210   -10.17900   24.48200   20.64300
      C    C211   -11.04000   23.37500   21.20200
      O    O212   -12.21000   23.61700   21.55600
      C    C213   -10.72800   24.98700   19.30500
      C    C214   -10.04100   26.34700   18.94100
      C    C215   -10.29500   26.84600   17.50300
      N    N216   -11.50600   26.28100   16.91500
      C    C217   -12.75900   26.62500   17.19600
      N    N218   -13.03700   27.57700   18.07900
      N    N219   -13.75000   25.98200   16.58600
      N    N220   -10.49800   22.16900   21.33600
      C    C221   -11.30100   21.08500   21.93600
      C    C222   -11.39400   21.30500   23.41900
      O    O223   -12.28500   20.73900   24.05100
      C    C224   -10.66000   19.70700   21.75500
      C    C225   -10.73000   19.17700   20.31300
      O    O226   -11.59100   19.61800   19.49400
      O    O227    -9.89100   18.29800   19.97800
      N    N228   -10.46400   22.09200   23.97600
      C    C229   -10.36200   22.38000   25.42300
      C    C230   -10.87900   23.73400   25.82800
      O    O231   -11.48200   23.88700   26.90100
      C    C232    -8.91500   22.37600   25.89100
      O    O233    -8.43200   21.06100   26.04600
      N    N234   -10.62000   24.74700   25.01900
      C    C235   -11.05100   26.08500   25.38100
      C    C236   -11.76800   26.67500   24.19000
      O    O237   -11.46500   26.37000   23.04700
      C    C238    -9.85700   26.94100   25.89200
      C    C239    -8.93400   26.12500   26.81200
      C    C240    -9.02500   27.39700   24.74700
      N    N241   -12.74700   27.50800   24.46000
      C    C242   -13.57600   28.02900   23.40100
      C    C243   -13.10600   29.44400   22.94200
      O    O244   -13.56900   29.95600   21.94100
      C    C245   -15.03200   28.03600   23.89100
      C    C246   -15.20600   28.79000   25.23800
      O    O247   -16.37000   29.04700   25.64600
      O    O248   -14.18200   29.14200   25.88200
      N    N249   -12.15300   30.05800   23.63800
      C    C250   -11.88300   31.47300   23.32700
      C    C251   -10.62400   31.80600   22.49100
      O    O252   -10.15700   32.94400   22.48300
      C    C253   -12.00200   32.36400   24.58900
      C    C254   -11.01200   31.95300   25.73400
      O    O255   -10.60700   30.75700   25.82100
      O    O256   -10.65900   32.87700   26.52300
      N    N257   -10.08000   30.84100   21.77400
      C    C258    -8.88400   31.15800   21.00500
      C    C259    -9.19500   31.80100   19.66300
      O    O260    -9.93100   31.22600   18.82200
      C    C261    -8.03400   29.95000   20.82200
      C    C262    -7.43600   29.55500   22.15800
      C    C263    -6.91700   30.28300   19.84600
      C    C264    -6.84500   28.18300   22.15800
      N    N265    -8.64700   32.99600   19.46200
      C    C266    -8.97400   33.75300   18.22700
      C    C267    -7.73300   34.01000   17.37500
      O    O268    -7.83200   34.45400   16.22400
      C    C269    -9.62300   35.10800   18.51600
      C    C270   -11.04300   34.98600   19.07100
      C    C271   -11.90500   34.20400   18.07400
      N    N272   -13.31300   34.25500   18.48000
      C    C273   -13.88400   33.39100   19.31500
      N    N274   -15.17500   33.52600   19.63700
      N    N275   -13.18000   32.38500   19.82300
      N    N276    -6.57900   33.76800   17.96400
      C    C277    -5.32600   34.03500   17.28100
      C    C278    -4.31100   33.03400   17.67500
      O    O279    -4.34100   32.62100   18.83800
      C    C280    -4.80400   35.49200   17.46700
      C    C281    -4.34300   35.77200   18.86800
      C    C282    -3.62400   35.73300   16.54800
      N    N283    -3.38700   32.62600   16.77900
      C    C284    -2.27800   31.75200   17.18100
      C    C285    -1.02000   32.25100   16.52100
      O    O286    -1.03200   32.38700   15.27600
      C    C287    -2.47900   30.32700   16.73400
      N    N288     0.02600   32.55300   17.27600
      C    C289     1.27100   33.15600   16.63900
      C    C290     2.29200   32.09100   16.34700
      O    O291     2.54000   31.19500   17.17600
      C    C292     1.89500   34.20800   17.59200
      C    C293     3.04800   34.99400   17.01600
      C    C294     3.47500   36.06900   18.04700
      N    N295     2.23900   36.60700   18.62600
      C    C296     2.13800   37.63600   19.46300
      N    N297     0.92500   38.00400   19.88200
      N    N298     3.21400   38.31500   19.87300
      N    N299     2.92400   32.14100   15.17300
      C    C300     3.95400   31.14100   14.88700
      C    C301     5.30400   31.53500   15.55700
      O    O302     5.79700   32.63200   15.33500
      C    C303     4.15400   31.03500   13.34800
      C    C304     5.28800   30.05200   13.02400
      C    C305     2.82600   30.46300   12.80200
      N    N306     5.85300   30.63000   16.38800
      C    C307     7.10600   30.89300   17.12200
      C    C308     8.27900   30.21100   16.40600
      O    O309     9.36500   30.80700   16.27000
      C    C310     7.02500   30.30400   18.58500
      C    C311     5.72100   30.83100   19.26400
      C    C312     8.22200   30.76400   19.49400
      C    C313     5.61200   32.39200   19.25000
      N    N314     8.06300   28.96200   15.96700
      C    C315     9.19000   28.21800   15.30000
      C    C316     8.63100   27.18600   14.35400
      O    O317     7.51700   26.73900   14.52600
      C    C318    10.06600   27.54600   16.41500
      C    C319    11.31400   26.88700   15.83000
      C    C320    12.28900   26.41900   16.93600
      O    O321    12.23300   25.22300   17.34300
      O    O322    13.13100   27.25200   17.38200
      N    N323     9.40900   26.80600   13.32700
      C    C324     9.04900   25.70800   12.43100
      C    C325    10.30200   24.84400   12.25700
      O    O326    11.47800   25.29300   12.31000
      C    C327     8.65100   26.25600   11.03800
      C    C328     7.33200   27.00700   11.07500
      C    C329     7.10900   27.80600    9.83500
      O    O330     6.28200   27.44500    8.98700
      N    N331     7.91100   28.84000    9.67900
      N    N332    10.02800   23.56800   12.12700
      C    C333    11.10800   22.64600   11.82200
      C    C334    10.56300   21.46100   11.04400
      O    O335     9.34900   21.36300   10.73600
      C    C336    11.98000   22.25500   13.05400
      C    C337    11.27700   21.28700   14.04100
      O    O338    11.79700   21.11300   15.18700
      O    O339    10.28400   20.66900   13.61900
      N    N340    11.49100   20.59100   10.68300
      C    C341    11.13400   19.28300   10.13600
      C    C342    11.89400   18.18000   10.86200
      O    O343    13.09300   18.30700   11.15700
      C    C344    11.43500   19.18500    8.65100
      C    C345    10.68800   20.19500    7.84600
      S    S346    11.75800   20.65500    6.45400
      C    C347    11.53900   19.26600    5.49500
      N    N348    11.17500   17.10600   11.17600
      C    C349    11.81700   15.88700   11.61300
      C    C350    11.92800   14.95400   10.43900
      O    O351    11.04000   14.89300    9.57600
      C    C352    11.01300   15.25700   12.73400
      N    N353    13.05100   14.25700   10.34900
      C    C354    13.29000   13.37500    9.23000
      C    C355    13.59200   11.97800    9.81600
      O    O356    14.34300   11.87700   10.79700
      C    C357    14.48400   13.88800    8.38400
      C    C358    14.38300   13.33200    6.94800
      C    C359    14.46200   15.40700    8.32400
      N    N360    12.98500   10.91600    9.27800
      C    C361    13.36600    9.54100    9.71200
      C    C362    14.38400    8.94300    8.74500
      O    O363    14.74100    9.57600    7.74700
      C    C364    12.12900    8.63500    9.92400
      C    C365    11.47100    8.19100    8.60900
      O    O366    10.31600    7.74800    8.70300
      O    O367    12.07900    8.25700    7.50200
      N    N368    14.82500    7.71100    9.00700
      C    C369    15.89700    7.09100    8.24700
      C    C370    15.51000    6.73700    6.80600
      O    O371    16.38300    6.44200    5.97600
      C    C372    16.40600    5.84600    8.97500
      O    O373    15.36700    5.24600    9.72100
      N    N374    14.20600    6.75500    6.52200
      C    C375    13.69500    6.51400    5.17400
      C    C376    13.59600    7.84100    4.41800
      O    O377    13.25300    7.87700    3.22500
      C    C378    12.32300    5.82100    5.24100
      N    N379    13.91700    8.92900    5.11600
      C    C380    13.71200   10.26400    4.57900
      C    C381    12.26900   10.79000    4.65200
      O    O382    11.96400   11.78000    3.99100
      N    N383    11.37700   10.13500    5.40000
      C    C384    10.00600   10.65500    5.55400
      C    C385    10.05400   11.89300    6.51100
      O    O386    10.49200   11.77100    7.63700
      C    C387     9.05900    9.56400    6.09900
      C    C388     7.82000   10.08000    6.90900
      C    C389     7.26800    9.00600    7.90600
      C    C390     6.10300    9.51000    8.78500
      N    N391     5.19300   10.45100    8.02300
      N    N392     9.55900   13.02500    6.00600
      C    C393     9.49400   14.32400    6.65900
      C    C394     8.18600   14.53900    7.42600
      O    O395     7.07100   14.21300    6.95400
      C    C396     9.64500   15.40500    5.56900
      C    C397    11.04600   15.28100    4.96600
      C    C398     9.49600   16.81500    6.11100
      C    C399    11.26400   16.16400    3.75900
      N    N400     8.33100   15.05800    8.63700
      C    C401     7.18500   15.48600    9.36800
      C    C402     7.44500   16.97000    9.52200
      O    O403     8.48700   17.33900   10.05200
      C    C404     7.11900   14.78100   10.75600
      O    O405     6.93400   13.39000   10.54600
      C    C406     5.97800   15.32600   11.58700
      N    N407     6.49900   17.80100    9.10500
      C    C408     6.60000   19.26800    9.35600
      C    C409     6.07300   19.58500   10.75300
      O    O410     5.00600   19.07700   11.16300
      C    C411     5.75900   20.02200    8.32500
      C    C412     6.26100   19.72100    6.94800
      C    C413     5.71400   18.65900    6.19200
      C    C414     7.32100   20.47500    6.41500
      C    C415     6.21000   18.33000    4.89700
      C    C416     7.80900   20.15500    5.09200
      C    C417     7.24100   19.08800    4.39000
      O    O418     7.77900   18.74200    3.14400
      N    N419     6.81800   20.37100   11.51400
      C    C420     6.39800   20.61300   12.90100
      C    C421     6.37000   22.13500   13.15000
      O    O422     7.20400   22.88500   12.61900
      C    C423     7.37700   19.98400   13.90000
      C    C424     7.62200   18.45000   13.65000
      C    C425     8.33100   17.76900   14.83600
      N    N426     9.67800   18.30300   15.04100
      C    C427    10.61300   17.75100   15.81000
      N    N428    10.35700   16.59000   16.44500
      N    N429    11.80100   18.37700   15.94500
      N    N430     5.36800   22.62400   13.89400
      C    C431     5.24500   24.08800   14.05300
      C    C432     4.79800   24.41400   15.49200
      O    O433     3.89500   23.75900   15.97900
      C    C434     4.31800   24.71100   12.99800
      C    C435     4.26600   26.24000   13.11500
      C    C436     2.85600   24.15600   13.15000
      C    C437     3.67100   26.86400   11.80600
      N    N438     5.53100   25.33300   16.13800
      C    C439     5.27300   25.71800   17.54600
      C    C440     4.45600   27.00000   17.42300
      O    O441     4.89500   27.99000   16.73700
      C    C442     6.61000   25.98400   18.29600
      C    C443     6.35200   26.41000   19.74400
      C    C444     7.55900   26.12600   20.60800
      C    C445     8.69100   27.03000   20.32100
      N    N446     9.78600   26.79300   21.38000
      N    N447     3.31100   26.99500   18.10900
      C    C448     2.34500   28.08100   18.12700
      C    C449     2.14200   28.60000   19.57000
      O    O450     2.16500   27.83300   20.49400
      C    C451     0.98600   27.60900   17.68800
      C    C452     0.89900   26.96700   16.25600
      C    C453    -0.47700   26.47900   16.00300
      C    C454     1.28000   28.04000   15.20400
      N    N455     1.90400   29.88500   19.69300
      C    C456     1.57500   30.44100   21.05200
      C    C457     0.08600   30.84600   20.99800
      O    O458    -0.32600   31.56800   20.07700
      C    C459     2.46400   31.66500   21.30300
      C    C460     2.25700   32.32400   22.65800
      C    C461     3.01300   33.65400   22.84500
      O    O462     2.42600   34.59700   23.38700
      O    O463     4.20000   33.78200   22.50700
      N    N464    -0.70800   30.40700   21.97300
      C    C465    -2.11800   30.79800   22.07100
      C    C466    -2.38200   31.20000   23.53600
      O    O467    -1.65400   30.77600   24.43700
      C    C468    -3.10300   29.59400   21.68800
      C    C469    -2.87900   29.24600   20.19900
      C    C470    -2.79900   28.36600   22.56900
      N    N471    -3.44100   31.97700   23.74900
      C    C472    -3.84000   32.29500   25.13100
      C    C473    -5.32500   32.09600   25.32300
      O    O474    -6.08700   32.08000   24.34600
      C    C475    -3.43600   33.70900   25.46700
      O    O476    -3.98300   34.62000   24.51300
      N    N477    -5.76400   31.97500   26.57000
      C    C478    -7.19500   31.75500   26.87500
      C    C479    -7.45300   32.18200   28.28200
      O    O480    -6.53700   32.24200   29.12400
      C    C481    -7.57100   30.22400   26.74200
      C    C482    -6.55500   29.27700   27.38600
      C    C483    -6.66500   28.90400   28.71300
      C    C484    -5.44900   28.88400   26.69500
      C    C485    -5.70000   28.10100   29.31700
      C    C486    -4.48800   28.05300   27.28300
      C    C487    -4.59900   27.67600   28.58300
      N    N488    -8.67700   32.56800   28.51100
      C    C489    -9.11200   32.97000   29.89300
      C    C490    -8.86000   31.85600   30.92500
      O    O491    -9.09900   30.67700   30.63400
      C    C492   -10.59200   33.33900   29.84400
      C    C493   -11.08600   34.18900   30.99100
      C    C494   -12.24800   35.07200   30.49900
      C    C495   -12.81400   35.85200   31.62600
      N    N496   -13.94800   36.65400   31.08000
      N    N497    -8.35800   32.22000   32.12000
      C    C498    -8.19600   31.26300   33.24200
      C    C499    -9.52400   31.07600   33.87700
      O    O500   -10.08000   32.04200   34.28500
      C    C501    -7.34900   31.85900   34.36300
      C    C502    -5.88400   32.05000   33.99700
      S    S503    -4.96300   32.64000   35.47300
      C    C504    -3.48400   32.10300   34.66000
      N    N505   -10.01300   29.84000   34.03000
      C    C506   -11.29400   29.64800   34.76800
      C    C507   -10.97200   29.40200   36.23200
      O    O508   -10.03500   28.63700   36.50600
      C    C509   -12.06800   28.45900   34.18300
      N    N510   -11.72600   30.02700   37.19800
      C    C511   -11.37400   29.78700   38.60900
      C    C512   -11.40000   28.30400   39.05500
      O    O513   -10.67700   27.97700   40.01900
      C    C514   -12.44900   30.58800   39.41600
      C    C515   -12.86300   31.71300   38.45800
      C    C516   -12.80200   31.04100   37.06200
      N    N517   -12.25800   27.46200   38.43400
      C    C518   -12.41400   26.03600   38.87500
      C    C519   -11.34200   25.16100   38.24200
      O    O520   -11.48000   23.90800   38.24400
      C    C521   -13.78600   25.43300   38.51600
      O    O522   -14.70300   25.40600   39.58500
      N    N523   -10.31900   25.78900   37.63600
      C    C524    -9.18900   25.04200   37.04600
      C    C525    -7.91200   25.39400   37.83500
      O    O526    -7.41400   26.54400   37.73300
      C    C527    -9.02300   25.34900   35.56400
      C    C528    -7.67400   24.83400   34.95100
      C    C529    -7.72200   23.32100   34.98200
      O    O530    -8.74500   22.74500   34.53900
      N    N531    -6.77300   22.68900   35.69600
      N    N532    -7.43500   24.45400   38.68100
      C    C533    -6.24800   24.73600   39.51200
      C    C534    -5.03700   25.05600   38.60900
      O    O535    -4.92800   24.58800   37.50200
      C    C536    -6.07400   23.42500   40.31900
      C    C537    -7.62100   23.00000   40.59000
      C    C538    -8.10500   23.18300   39.08200
      N    N539    -4.17000   25.93800   39.09000
      C    C540    -3.01100   26.31700   38.33200
      C    C541    -1.82600   25.31300   38.57200
      O    O542    -1.76200   24.50900   39.54600
      C    C543    -2.66200   27.73200   38.82200
      C    C544    -1.60400   28.65000   38.29000
      C    C545    -2.30000   29.77000   37.45500
      C    C546    -1.00700   29.31900   39.54200
      O    O547    -0.93600   25.25000   37.68700
