# CIF file generated by openbabel 2.3.2, see http://openbabel.sf.net
data_I
_chemical_name_common '../proteins/pdb/3OQT.pdb'
_cell_length_a 143.946
_cell_length_b 143.946
_cell_length_c 143.946
_cell_angle_alpha 90
_cell_angle_beta 90
_cell_angle_gamma 90
_space_group_name_H-M_alt 'P 21 3'
_space_group_name_Hall 'P 2ac 2ab 3'
loop_
    _symmetry_equiv_pos_as_xyz
    'x,y,z'
    '1/2-x,-y,1/2+z'
    '-x,1/2+y,1/2-z'
    '1/2+x,1/2-y,-z'
    'z,x,y'
    '1/2+z,1/2-x,-y'
    '1/2-z,-x,1/2+y'
    '-z,1/2+x,1/2-y'
    'y,z,x'
    '-y,1/2+z,1/2-x'
    '1/2+y,1/2-z,-x'
    '1/2-y,-z,1/2+x'
loop_
    _atom_site_type_symbol
    _atom_site_label
    _atom_site_Cartn_x
    _atom_site_Cartn_y
    _atom_site_Cartn_z
      N    N1   -40.19400   -7.67900    1.02600
      C    C2   -40.37400   -9.14700    1.21600
      C    C3   -40.12300   -9.90000   -0.08500
      O    O4   -39.89600   -9.29400   -1.13700
      C    C5   -41.77700   -9.48300    1.73700
      C    C6   -42.25300   -8.65900    2.91900
      S    S7   -43.38100   -7.31800    2.48600
      C    C8   -42.27800   -5.90500    2.46000
      N    N9   -40.17800  -11.22600   -0.00100
      C    C10   -39.90500  -12.09600   -1.13900
      C    C11   -40.78500  -13.34100   -1.10600
      O    O12   -41.36600  -13.73000   -2.11900
      C    C13   -38.43200  -12.50500   -1.13800
      O    O14   -38.05600  -13.04000    0.12300
      N    N15   -40.86700  -13.96300    0.06600
      C    C16   -41.65600  -15.17000    0.25100
      C    C17   -42.21500  -15.20300    1.67000
      O    O18   -42.71000  -16.23200    2.13900
      C    C19   -40.79400  -16.40600   -0.02400
      C    C20   -41.51300  -17.45100   -0.86000
      O    O21   -42.70400  -17.70700   -0.67900
      N    N22   -40.78300  -18.06600   -1.78100
      N    N23   -42.12600  -14.05900    2.34300
      C    C24   -42.64400  -13.89000    3.69400
      C    C25   -44.13300  -14.20300    3.75200
      O    O26   -44.84100  -14.10700    2.75100
      C    C27   -42.41200  -12.45500    4.17400
      C    C28   -41.00100  -12.16500    4.57800
      N    N29   -39.92300  -12.41000    3.75500
      C    C30   -40.49200  -11.63000    5.71300
      C    C31   -38.81100  -12.05000    4.36900
      N    N32   -39.12800  -11.57400    5.55900
      N    N33   -44.59700  -14.58700    4.93200
      C    C34   -46.00800  -14.83300    5.16100
      C    C35   -46.33300  -14.24300    6.52000
      O    O36   -45.58400  -14.43900    7.47800
      C    C37   -46.34000  -16.34000    5.11500
      O    O38   -46.03600  -16.85500    3.81300
      C    C39   -47.81600  -16.59200    5.41000
      N    N40   -47.43800  -13.51000    6.59500
      C    C41   -47.80200  -12.80600    7.81600
      C    C42   -49.11200  -13.30200    8.40000
      O    O43   -49.96500  -13.82800    7.68900
      C    C44   -47.89700  -11.29900    7.55800
      C    C45   -46.61600  -10.67000    7.07100
      C    C46   -46.18100  -10.86300    5.76000
      C    C47   -45.84900   -9.86400    7.90900
      C    C48   -45.00700  -10.28600    5.30200
      C    C49   -44.67200   -9.28100    7.45900
      C    C50   -44.25800   -9.49800    6.15800
      O    O51   -43.09400   -8.91800    5.71800
      N    N52   -49.25300  -13.12800    9.70800
      C    C53   -50.47900  -13.45600   10.41000
      C    C54   -51.14100  -12.15100   10.82400
      O    O55   -50.46600  -11.21700   11.26200
      C    C56   -50.17000  -14.29100   11.65400
      C    C57   -51.39700  -14.80100   12.39500
      C    C58   -51.46400  -16.31700   12.36800
      N    N59   -52.69100  -16.83800   12.97100
      C    C60   -52.97400  -16.80000   14.27400
      N    N61   -52.12600  -16.25100   15.13900
      N    N62   -54.11300  -17.31200   14.71800
      N    N63   -52.45900  -12.08900   10.67800
      C    C64   -53.21100  -10.93400   11.13200
      C    C65   -54.11500  -11.35000   12.28300
      O    O66   -55.07700  -12.09700   12.09400
      C    C67   -54.06400  -10.31600   10.00700
      C    C68   -54.76200   -9.06700   10.51200
      C    C69   -53.21100   -9.98200    8.80200
      N    N70   -53.78400  -10.88900   13.47900
      C    C71   -54.66200  -11.08400   14.62000
      C    C72   -55.46300   -9.80600   14.82000
      O    O73   -55.15900   -8.77000   14.21700
      C    C74   -53.88700  -11.42700   15.90200
      C    C75   -52.84300  -10.34800   16.19200
      C    C76   -53.24900  -12.80400   15.77900
      C    C77   -52.37100  -10.34400   17.60900
      N    N78   -56.48400   -9.88100   15.66300
      C    C79   -57.35400   -8.74600   15.90000
      C    C80   -57.45900   -8.46900   17.39100
      O    O81   -57.90900   -9.32000   18.16200
      C    C82   -58.73000   -9.01900   15.29400
      C    C83   -59.66400   -7.83200   15.26600
      C    C84   -60.92400   -8.11400   14.47300
      O    O85   -60.83900   -8.22000   13.23100
      O    O86   -62.00500   -8.22300   15.08900
      N    N87   -57.02600   -7.28000   17.79200
      C    C88   -57.08800   -6.87100   19.19000
      C    C89   -58.04000   -5.69100   19.36000
      O    O90   -58.53100   -5.13500   18.37500
      C    C91   -55.69300   -6.48300   19.75000
      C    C92   -55.21600   -5.15700   19.14400
      C    C93   -54.67600   -7.61600   19.53000
      C    C94   -54.15700   -4.46100   19.95500
      N    N95   -58.29900   -5.32000   20.61200
      C    C96   -59.11200   -4.14900   20.93000
      C    C97   -58.41200   -3.33300   22.01900
      O    O98   -58.16900   -3.82800   23.11900
      C    C99   -60.53700   -4.54000   21.41000
      C    C100   -61.47900   -3.34600   21.32100
      C    C101   -61.08800   -5.71300   20.60800
      N    N102   -58.07200   -2.08900   21.70000
      C    C103   -57.44100   -1.20000   22.66600
      C    C104   -58.48800   -0.35400   23.35200
      O    O105   -59.42800    0.10600   22.71300
      N    N106   -58.33600   -0.16500   24.66000
      C    C107   -59.25900    0.66000   25.43400
      C    C108   -58.48800    1.64800   26.29400
      O    O109   -57.38700    1.34800   26.75800
      C    C110   -60.18500   -0.18400   26.33700
      O    O111   -59.40200   -0.92000   27.28200
      C    C112   -61.03500   -1.14800   25.51000
      N    N113   -59.06700    2.82500   26.50500
      C    C114   -58.42800    3.86500   27.30200
      C    C115   -59.42000    4.94400   27.70200
      O    O116   -60.36200    5.22400   26.95900
      C    C117   -57.28100    4.50400   26.52300
      O    O118   -56.81100    5.67300   27.17000
      N    N119   -59.20700    5.56500   28.87600
      C    C120   -60.06400    6.67800   29.27000
      C    C121   -59.69600    7.95300   28.51900
      O    O122   -60.47200    8.90300   28.53000
      C    C123   -59.77400    6.84400   30.77200
      C    C124   -58.91700    5.65700   31.16200
      C    C125   -58.20500    5.26600   29.91300
      N    N126   -58.53500    7.94700   27.85800
      C    C127   -57.98400    9.13800   27.20600
      C    C128   -57.95800    9.08700   25.67900
      O    O129   -56.90900    9.29900   25.06900
      C    C130   -56.56300    9.42900   27.71500
      C    C131   -56.40100    9.19000   29.20600
      O    O132   -57.28500    9.59500   29.99200
      O    O133   -55.36900    8.60400   29.59300
      N    N134   -59.10300    8.80800   25.06300
      C    C135   -59.22700    8.90100   23.60700
      C    C136   -58.66100    7.78200   22.74700
      O    O137   -58.11200    6.79400   23.24600
      N    N138   -58.80900    7.97300   21.43800
      C    C139   -58.41200    7.01000   20.41400
      C    C140   -56.91700    6.69100   20.47900
      O    O141   -56.54300    5.52600   20.62200
      C    C142   -58.80000    7.52200   18.99800
      C    C143   -58.49600    6.48000   17.93800
      C    C144   -60.27800    7.89100   18.94900
      N    N145   -56.07900    7.72500   20.39100
      C    C146   -54.62800    7.55900   20.43200
      C    C147   -54.19100    6.65300   21.57800
      O    O148   -53.50700    5.65600   21.35900
      C    C149   -53.92900    8.91200   20.55800
      C    C150   -53.96500    9.71200   19.27800
      O    O151   -53.79200    9.12200   18.19200
      O    O152   -54.15600   10.94200   19.35600
      N    N153   -54.60000    7.00300   22.79400
      C    C154   -54.26200    6.22600   23.98300
      C    C155   -54.71400    4.77600   23.87500
      O    O156   -53.94400    3.86500   24.18000
      C    C157   -54.84000    6.87800   25.23500
      N    N158   -55.95200    4.56200   23.43700
      C    C159   -56.46900    3.20600   23.28300
      C    C160   -55.67300    2.45000   22.22800
      O    O161   -55.28600    1.30100   22.44200
      C    C162   -57.94600    3.23300   22.93800
      N    N163   -55.42300    3.11000   21.09800
      C    C164   -54.61900    2.53600   20.02300
      C    C165   -53.25100    2.15100   20.57500
      O    O166   -52.83800    0.98900   20.49900
      C    C167   -54.45500    3.52700   18.83900
      C    C168   -55.80300    3.75300   18.14400
      C    C169   -53.40900    3.01400   17.84100
      C    C170   -55.75600    4.72900   16.98500
      N    N171   -52.57400    3.14400   21.14600
      C    C172   -51.26100    2.98500   21.74900
      C    C173   -51.29600    1.91300   22.83900
      O    O174   -50.45100    1.01400   22.87000
      C    C175   -50.81800    4.32200   22.34000
      C    C176   -49.32400    4.54000   22.37700
      C    C177   -48.74400    4.88200   21.02000
      O    O178   -47.90400    4.15600   20.49600
      N    N179   -49.18200    5.99500   20.45100
      N    N180   -52.28700    2.00900   23.72200
      C    C181   -52.43900    1.06700   24.82200
      C    C182   -52.56100   -0.36600   24.35000
      O    O183   -51.80200   -1.23200   24.78800
      N    N184   -53.51400   -0.60700   23.45000
      C    C185   -53.77900   -1.94400   22.92600
      C    C186   -52.55300   -2.61400   22.34100
      O    O187   -52.24600   -3.76400   22.66500
      N    N188   -51.85700   -1.88000   21.47600
      C    C189   -50.64300   -2.36300   20.82300
      C    C190   -49.59800   -2.80600   21.83600
      O    O191   -49.17400   -3.95800   21.82300
      C    C192   -50.07300   -1.28700   19.89500
      C    C193   -50.96800   -0.92200   18.71100
      C    C194   -50.41100    0.26300   17.95200
      C    C195   -51.13600   -2.11400   17.78200
      N    N196   -49.19400   -1.89200   22.71600
      C    C197   -48.24400   -2.20600   23.77900
      C    C198   -48.47800   -3.62100   24.30600
      O    O199   -47.54300   -4.41600   24.39800
      C    C200   -48.35200   -1.18800   24.90700
      N    N201   -49.73500   -3.93000   24.62200
      C    C202   -50.12200   -5.26400   25.06800
      C    C203   -49.73200   -6.34700   24.07300
      O    O204   -49.05600   -7.30200   24.44100
      C    C205   -51.62200   -5.32300   25.36200
      C    C206   -51.96600   -5.08500   26.82200
      C    C207   -52.32800   -6.37600   27.54700
      N    N208   -51.45500   -7.49500   27.19500
      C    C209   -51.47300   -8.68500   27.79200
      N    N210   -52.31300   -8.92900   28.79100
      N    N211   -50.64200   -9.63800   27.39000
      N    N212   -50.15500   -6.20300   22.82100
      C    C213   -49.79800   -7.17100   21.78900
      C    C214   -48.28000   -7.33000   21.70000
      O    O215   -47.77100   -8.44800   21.61700
      C    C216   -50.37800   -6.75900   20.44900
      N    N217   -47.56800   -6.20600   21.74900
      C    C218   -46.10900   -6.19400   21.69600
      C    C219   -45.48000   -6.89600   22.89700
      O    O220   -44.44600   -7.55600   22.76400
      C    C221   -45.60500   -4.77100   21.59600
      N    N222   -46.11300   -6.75400   24.05900
      C    C223   -45.62200   -7.35700   25.29700
      C    C224   -45.36300   -8.85100   25.16800
      O    O225   -44.53900   -9.39900   25.89800
      C    C226   -46.59700   -7.09900   26.45000
      C    C227   -46.60100   -5.66200   26.94900
      C    C228   -47.69900   -5.38600   27.95900
      O    O229   -47.83300   -6.09300   28.96000
      N    N230   -48.48100   -4.34100   27.71200
      N    N231   -46.05100   -9.50400   24.23300
      C    C232   -45.97400  -10.96000   24.11100
      C    C233   -45.78800  -11.45300   22.68100
      O    O234   -45.50800  -12.63500   22.45500
      C    C235   -47.21200  -11.62900   24.73300
      O    O236   -48.29000  -11.64800   23.78300
      C    C237   -47.65500  -10.82900   25.94300
      N    N238   -45.93900  -10.54900   21.72000
      C    C239   -45.79300  -10.92700   20.32600
      C    C240   -44.57400  -10.32300   19.65100
      O    O241   -44.21400   -9.16900   19.89500
      C    C242   -47.07700  -10.64900   19.54800
      C    C243   -48.02900  -11.82700   19.59200
      S    S244   -49.67400  -11.46800   18.97600
      C    C245   -50.56900  -11.28800   20.52400
      N    N246   -43.94400  -11.14000   18.81000
      C    C247   -42.72700  -10.78300   18.09200
      C    C248   -42.93900   -9.56600   17.20400
      O    O249   -43.87300   -9.53200   16.40000
      C    C250   -42.23900  -11.97700   17.26100
      C    C251   -43.05900  -12.26600   16.00100
      C    C252   -43.35100  -13.74900   15.84000
      N    N253   -44.71800  -14.09100   16.23500
      C    C254   -45.13200  -14.24400   17.49400
      N    N255   -44.29200  -14.09300   18.51700
      N    N256   -46.39700  -14.56000   17.73100
      N    N257   -42.06800   -8.57400   17.37600
      C    C258   -42.08500   -7.33100   16.60500
      C    C259   -43.26900   -7.21200   15.64500
      O    O260   -43.22200   -7.70900   14.51500
      C    C261   -40.76500   -7.16300   15.85200
      N    N262   -44.33300   -6.56500   16.11000
      C    C263   -45.50200   -6.30400   15.27800
      C    C264   -45.09600   -5.34500   14.17000
      O    O265   -44.31500   -4.42200   14.40300
      C    C266   -46.62000   -5.68500   16.11200
      C    C267   -46.88900   -6.28900   17.49000
      C    C268   -47.81400   -5.39100   18.29300
      C    C269   -47.44600   -7.70500   17.37400
      N    N270   -45.61100   -5.56900   12.96500
      C    C271   -45.23200   -4.73800   11.82700
      C    C272   -46.23800   -3.64200   11.49200
      O    O273   -45.84100   -2.51400   11.21000
      C    C274   -44.93000   -5.58800   10.59200
      C    C275   -43.63400   -6.36100   10.72400
      O    O276   -43.63600   -7.41500   11.39400
      O    O277   -42.61500   -5.91600   10.15200
      N    N278   -47.53100   -3.96200   11.52500
      C    C279   -48.55300   -2.97300   11.17300
      C    C280   -49.89200   -3.18000   11.88800
      O    O281   -50.20200   -4.28000   12.34400
      C    C282   -48.76300   -2.95200    9.65300
      C    C283   -49.77500   -3.94700    9.17700
      C    C284   -51.12800   -3.76800    9.11300
      C    C285   -49.52500   -5.27600    8.71300
      N    N286   -51.73600   -4.90000    8.63700
      C    C287   -50.77600   -5.84300    8.38200
      C    C288   -48.36700   -6.04300    8.54100
      C    C289   -50.90400   -7.14400    7.88900
      C    C290   -48.49500   -7.34000    8.05000
      C    C291   -49.75600   -7.87500    7.73000
      N    N292   -50.67900   -2.10900   11.96800
      C    C293   -52.02900   -2.16800   12.52000
      C    C294   -53.01800   -1.44600   11.60800
      O    O295   -52.62700   -0.59900   10.80000
      C    C296   -52.07000   -1.57900   13.93600
      C    C297   -51.93800   -0.08100   13.98200
      C    C298   -53.05000    0.73700   13.79500
      C    C299   -50.70600    0.51400   14.22900
      C    C300   -52.93400    2.12300   13.83800
      C    C301   -50.58100    1.89900   14.28200
      C    C302   -51.69800    2.70500   14.08500
      N    N303   -54.29900   -1.77000   11.75700
      C    C304   -55.34000   -1.21600   10.90300
      C    C305   -56.63800   -1.06700   11.69200
      O    O306   -57.23400   -2.06400   12.10200
      C    C307   -55.54100   -2.13700    9.69400
      C    C308   -56.25300   -1.50800    8.50800
      C    C309   -56.00900   -2.26700    7.21000
      O    O310   -54.83200   -2.49000    6.85400
      O    O311   -56.99600   -2.63400    6.53900
      N    N312   -57.07200    0.17500   11.89800
      C    C313   -58.30200    0.45300   12.65200
      C    C314   -59.53500   -0.14800   11.97900
      O    O315   -59.80400    0.10100   10.80200
      C    C316   -58.51900    1.97800   12.89700
      C    C317   -59.86400    2.23200   13.56700
      C    C318   -57.40700    2.54000   13.76400
      N    N319   -60.27000   -0.95200   12.73900
      C    C320   -61.49600   -1.55800   12.24500
      C    C321   -62.70400   -0.80900   12.77800
      O    O322   -63.72900   -0.74000   12.10100
      C    C323   -61.56800   -3.03600   12.62600
      C    C324   -60.39300   -3.85900   12.12300
      C    C325   -60.25200   -3.82500   10.61200
      O    O326   -61.07300   -4.38300    9.88700
      N    N327   -59.20200   -3.17500   10.13400
      N    N328   -62.58600   -0.24700   13.98200
      C    C329   -63.66200    0.57100   14.54900
      C    C330   -63.26000    1.42800   15.75200
      O    O331   -62.20300    1.23300   16.35500
      C    C332   -64.88000   -0.29600   14.90400
      O    O333   -64.83000   -0.74900   16.24300
      N    N334   -64.12500    2.38400   16.07600
      C    C335   -63.97100    3.23800   17.24900
      C    C336   -65.31300    3.30900   17.97400
      O    O337   -66.26000    3.94300   17.50800
      C    C338   -63.49200    4.66600   16.87900
      C    C339   -62.17400    4.61200   16.10300
      C    C340   -63.32200    5.51500   18.13100
      C    C341   -61.89500    5.84300   15.27000
      N    N342   -65.38700    2.63100   19.11000
      C    C343   -66.60200    2.59300   19.90700
      C    C344   -66.25500    2.98900   21.33000
      O    O345   -65.10000    3.29600   21.62600
      C    C346   -67.21300    1.19300   19.86800
      C    C347   -67.28000    0.62400   18.46800
      C    C348   -67.86800   -0.75700   18.44100
      N    N349   -67.87500   -1.27100   17.07600
      C    C350   -68.83900   -2.03000   16.56700
      N    N351   -69.88100   -2.36600   17.31500
      N    N352   -68.76300   -2.45400   15.31000
      N    N353   -67.25000    2.99400   22.20900
      C    C354   -67.00100    3.33000   23.60000
      C    C355   -68.18800    3.09700   24.50500
      O    O356   -69.33200    3.30300   24.11100
      N    N357   -67.89700    2.66100   25.72500
      C    C358   -68.90700    2.45700   26.74800
      C    C359   -69.15400    3.78200   27.47000
      O    O360   -68.23600    4.58600   27.63500
      C    C361   -68.42700    1.38600   27.73500
      C    C362   -69.41600    1.04900   28.80800
      N    N363   -70.11900    2.00800   29.50500
      C    C364   -69.79100   -0.14100   29.33200
      C    C365   -70.90100    1.42500   30.39300
      N    N366   -70.71800    0.12000   30.31300
      N    N367   -70.39800    4.00200   27.89000
      C    C368   -70.77000    5.18300   28.67300
      C    C369   -71.52000    4.77900   29.94200
      O    O370   -72.65500    4.30100   29.87700
      C    C371   -71.62700    6.14500   27.84200
      C    C372   -71.05700    6.68400   26.52400
      C    C373   -72.10600    7.47800   25.77100
      C    C374   -69.82800    7.53000   26.75900
      N    N375   -70.87800    4.96400   31.09300
      C    C376   -71.49700    4.65100   32.38400
      C    C377   -72.30000    5.86300   32.87500
      O    O378   -72.91400    5.84000   33.94900
      C    C379   -70.43800    4.23400   33.44300
      C    C380   -71.10600    3.68200   34.68800
      C    C381   -69.48400    3.19700   32.87800
      N    N382   -72.28900    6.91800   32.06400
      C    C383   -72.97800    8.16600   32.37000
      C    C384   -72.91600    9.07400   31.14700
      O    O385   -72.72300    8.59900   30.02500
      C    C386   -72.35600    8.85400   33.59600
      C    C387   -70.84600    8.99900   33.48900
      O    O388   -70.14700    7.97700   33.32500
      O    O389   -70.35600   10.14100   33.59500
      N    N390   -73.08400   10.37700   31.36400
      C    C391   -73.01100   11.35100   30.28000
      C    C392   -71.64200   11.42200   29.62900
      O    O393   -71.52200   11.68600   28.42900
      N    N394   -70.60800   11.18400   30.43000
      C    C395   -69.23300   11.22200   29.95400
      C    C396   -68.77000    9.85800   29.45800
      O    O397   -69.42100    8.83800   29.70400
      C    C398   -68.30700   11.73300   31.05300
      N    N399   -67.63600    9.85800   28.76100
      C    C400   -67.02600    8.63700   28.25400
      C    C401   -66.29600    7.92300   29.37900
      O    O402   -65.39900    8.49300   30.00500
      C    C403   -66.02600    8.92100   27.10900
      C    C404   -65.55700    7.61600   26.47500
      C    C405   -66.65600    9.81600   26.05900
      N    N406   -66.69100    6.68000   29.63900
      C    C407   -65.98800    5.84500   30.60200
      C    C408   -64.60900    5.51900   30.04300
      O    O409   -63.60100    5.65100   30.74200
      C    C410   -66.76900    4.57500   30.87600
      N    N411   -64.58000    5.11000   28.77500
      C    C412   -63.33700    4.81200   28.07800
      C    C413   -63.57400    4.35100   26.64300
      O    O414   -64.48500    3.56600   26.36500
      C    C415   -62.51400    3.77100   28.84500
      C    C416   -63.12900    2.41100   28.85900
      N    N417   -64.22000    2.09400   29.63800
      C    C418   -62.81500    1.28800   28.17400
      C    C419   -64.55300    0.83400   29.43100
      N    N420   -63.71600    0.32200   28.54800
      N    N421   -62.73600    4.85600   25.74400
      C    C422   -62.78200    4.51300   24.33000
      C    C423   -62.39200    3.06400   24.11600
      O    O424   -61.76900    2.44400   24.97600
      C    C425   -61.84300    5.42400   23.53800
      C    C426   -62.23400    6.87200   23.57800
      C    C427   -62.15500    7.59600   24.76800
      C    C428   -62.69700    7.51100   22.43300
      C    C429   -62.53000    8.93200   24.81700
      C    C430   -63.07300    8.85100   22.46900
      C    C431   -62.98900    9.56200   23.66400
      N    N432   -62.78200    2.53000   22.96600
      C    C433   -62.46700    1.16300   22.59500
      C    C434   -62.09100    1.18600   21.12500
      O    O435   -62.94100    1.42400   20.26500
      C    C436   -63.67100    0.24700   22.82200
      C    C437   -64.43000    0.52000   24.11400
      C    C438   -65.48800   -0.52400   24.42000
      O    O439   -66.06000   -1.13500   23.51700
      N    N440   -65.75800   -0.72900   25.70400
      N    N441   -60.81300    0.97700   20.83500
      C    C442   -60.35300    0.97000   19.45200
      C    C443   -59.94900   -0.44000   19.04900
      O    O444   -58.97500   -0.99600   19.55900
      C    C445   -59.20200    1.97000   19.21000
      C    C446   -58.84500    2.00600   17.73400
      C    C447   -59.59800    3.35800   19.67900
      N    N448   -60.72400   -1.01700   18.14100
      C    C449   -60.47600   -2.37300   17.67500
      C    C450   -59.78900   -2.35700   16.31700
      O    O451   -60.29700   -1.78100   15.35600
      C    C452   -61.76800   -3.22800   17.66600
      O    O453   -61.89700   -3.90600   16.41100
      C    C454   -63.00000   -2.36700   17.90900
      N    N455   -58.62000   -2.98800   16.26600
      C    C456   -57.77000   -2.97500   15.08000
      C    C457   -57.18300   -4.34800   14.75100
      O    O458   -57.19100   -5.25600   15.58200
      C    C459   -56.64900   -1.94500   15.25400
      C    C460   -55.79000   -2.15200   16.47900
      S    S461   -55.09600   -0.60300   17.07000
      C    C462   -55.04700   -0.94200   18.83600
      N    N463   -56.68300   -4.49400   13.53100
      C    C464   -56.03200   -5.72900   13.12500
      C    C465   -54.52900   -5.51300   13.05300
      O    O466   -54.05000   -4.64700   12.32000
      C    C467   -56.56900   -6.21100   11.77700
      C    C468   -58.04400   -6.57000   11.78900
      C    C469   -58.44700   -7.19800   10.47900
      C    C470   -59.91400   -7.57400   10.48200
      N    N471   -60.27200   -8.38200    9.28400
      N    N472   -53.79500   -6.30400   13.82800
      C    C473   -52.34400   -6.19300   13.90300
      C    C474   -51.68600   -7.31300   13.10100
      O    O475   -52.04500   -8.48400   13.24300
      C    C476   -51.85800   -6.21700   15.37400
      C    C477   -50.34900   -6.04400   15.45900
      C    C478   -52.55700   -5.13900   16.18000
      N    N479   -50.72900   -6.94100   12.25700
      C    C480   -50.01200   -7.90200   11.42500
      C    C481   -48.54400   -8.05000   11.77900
      O    O482   -47.88100   -7.07400   12.13700
      N    N483   -48.05000   -9.28300   11.67500
      C    C484   -46.64800   -9.62300   11.93500
      C    C485   -46.23400  -10.80100   11.05900
      O    O486   -47.08700  -11.50800   10.52500
      C    C487   -46.43300   -9.97500   13.41100
      C    C488   -47.36200  -11.04200   13.92700
      C    C489   -48.61200  -10.70500   14.43400
      C    C490   -46.98800  -12.38400   13.90700
      C    C491   -49.47800  -11.68800   14.90500
      C    C492   -47.84600  -13.37500   14.37800
      C    C493   -49.09300  -13.02700   14.87700
      N    N494   -44.92800  -11.01700   10.92600
      C    C495   -44.40300  -12.10000   10.09200
      C    C496   -44.18800  -13.39000   10.86800
      O    O497   -44.54900  -13.48900   12.04000
      C    C498   -43.11000  -11.67200    9.38100
      C    C499   -42.40800  -10.48400   10.01700
      C    C500   -41.23000   -9.98800    9.18300
      N    N501   -40.83300   -8.63400    9.56900
      C    C502   -40.22200   -8.31900   10.71200
      N    N503   -39.91800   -9.25800   11.60400
      N    N504   -39.90900   -7.05600   10.96500
      N    N505   -43.60800  -14.37900   10.19000
      C    C506   -43.31300  -15.68500   10.77600
      C    C507   -42.49300  -16.52900    9.80700
      O    O508   -42.99600  -16.96800    8.77100
      C    C509   -44.59900  -16.42200   11.19200
      C    C510   -45.89800  -16.29000   10.38500
      C    C511   -45.99200  -17.31900    9.27300
      C    C512   -47.07400  -16.45400   11.32300
      N    N513   -41.22300  -16.73800   10.14400
      C    C514   -40.30600  -17.50800    9.30700
      C    C515   -38.92800  -17.55700    9.93900
      O    O516   -38.43900  -16.55200   10.46200
      C    C517   -40.19900  -16.89900    7.90900
      C    C518   -39.96300  -15.40000    7.91300
      C    C519   -39.57500  -14.87400    6.56000
      O    O520   -38.58000  -14.12700    6.49600
      O    O521   -40.25500  -15.20900    5.56600
      N    N522   -38.30700  -18.73000    9.88200
      C    C523   -36.99200  -18.94000   10.47700
      C    C524   -36.43900  -20.30900   10.11400
      O    O525   -35.73500  -20.44400    9.11200
      C    C526   -37.05400  -18.77200   12.00000
      C    C527   -38.35700  -19.27900   12.58700
      O    O528   -38.60700  -20.50300   12.52700
      O    O529   -39.14000  -18.44700   13.09200
      N    N530   -36.76000  -21.31300   10.93000
      C    C531   -36.29500  -22.68200   10.72600
      C    C532   -34.80700  -22.85300   11.03800
      O    O533   -34.07700  -21.86600   11.20400
      C    C534   -36.61400  -23.15100    9.30200
      O    O535   -35.97900  -24.38000    9.00600
      O    O536   -34.31000  -23.98400   11.13700
