# CIF file generated by openbabel 2.3.2, see http://openbabel.sf.net
data_I
_chemical_name_common '../proteins/pdb/3OUV.pdb'
_cell_length_a 24.439
_cell_length_b 73.413
_cell_length_c 32.583
_cell_angle_alpha 90
_cell_angle_beta 90
_cell_angle_gamma 90
_space_group_name_H-M_alt 'P 21 21 2'
_space_group_name_Hall 'P 2 2ab'
loop_
    _symmetry_equiv_pos_as_xyz
    'x,y,z'
    '-x,-y,z'
    '1/2-x,1/2+y,-z'
    '1/2+x,1/2-y,-z'
loop_
    _atom_site_type_symbol
    _atom_site_label
    _atom_site_Cartn_x
    _atom_site_Cartn_y
    _atom_site_Cartn_z
      N    N1    20.31200   33.00100   37.45700
      C    C2    21.24700   32.19600   38.23900
      C    C3    22.64500   32.39100   37.69000
      O    O4    22.97500   33.47800   37.22300
      C    C5    20.79900   30.75700   37.93300
      C    C6    19.75400   30.86200   36.80400
      C    C7    19.86700   32.26200   36.26800
      N    N8    23.44700   31.33200   37.72800
      C    C9    24.80600   31.36300   37.21100
      C    C10    24.83300   31.72000   35.73400
      O    O11    23.86000   31.51000   35.01300
      C    C12    25.48900   30.01900   37.44200
      N    N13    25.95400   32.27300   35.29400
      C    C14    26.14300   32.57500   33.89000
      C    C15    27.14500   31.56800   33.36900
      O    O16    27.82100   30.89800   34.15000
      C    C17    26.67100   34.01100   33.66200
      O    O18    27.90500   34.18800   34.36200
      C    C19    25.66700   35.04000   34.14300
      N    N20    27.23800   31.45200   32.05200
      C    C21    28.09500   30.44700   31.45800
      C    C22    28.31200   30.79900   29.99000
      O    O23    27.40700   31.32700   29.34400
      C    C24    27.41600   29.08300   31.57900
      C    C25    28.35300   27.90700   31.46900
      C    C26    29.29700   27.82700   32.66100
      C    C27    30.14100   26.58100   32.55300
      N    N28    31.28000   26.58100   33.51000
      N    N29    29.48200   30.50600   29.47600
      C    C30    29.74700   30.72100   28.07800
      C    C31    29.05700   29.67000   27.21300
      O    O32    29.14800   28.52200   27.49600
      C    C33    31.23600   30.70000   27.82700
      C    C34    31.87800   29.40100   28.27200
      O    O35    32.54100   28.76800   27.47300
      O    O36    31.73200   28.98400   29.42000
      N    N37    28.39000   30.07000   26.15000
      C    C38    27.68200   29.11000   25.30000
      C    C39    28.69500   28.33700   24.46100
      O    O40    29.52200   28.95000   23.79400
      C    C41    26.67500   29.83000   24.36900
      C    C42    25.59600   30.53600   25.20000
      C    C43    26.03700   28.85800   23.40300
      C    C44    24.60300   31.31400   24.37800
      N    N45    28.65900   26.99300   24.51400
      C    C46    29.61400   26.22700   23.70700
      C    C47    29.34300   26.36400   22.22000
      O    O48    28.21100   26.61900   21.79800
      C    C49    29.36500   24.77100   24.12000
      C    C50    28.08400   24.77700   24.88400
      C    C51    27.90300   26.13900   25.44400
      N    N52    30.39500   26.18600   21.43600
      C    C53    30.27300   26.08100   19.99900
      C    C54    29.79000   24.67200   19.68900
      O    O55    30.40500   23.69400   20.11500
      C    C56    31.63900   26.32300   19.36800
      C    C57    31.59100   26.31700   17.86300
      O    O58    30.49100   26.14700   17.30900
      O    O59    32.65700   26.47800   17.23500
      N    N60    28.67800   24.56500   18.97100
      C    C61    28.13400   23.27400   18.60700
      C    C62    27.90800   23.17300   17.10100
      O    O63    27.17400   22.29800   16.63700
      C    C64    26.80800   22.98400   19.34700
      C    C65    27.05900   22.79200   20.84400
      C    C66    25.80100   24.10200   19.10300
      N    N67    28.53900   24.06200   16.33700
      C    C68    28.44900   24.00000   14.88100
      C    C69    28.85400   22.61100   14.39400
      O    O70    29.86900   22.06900   14.84200
      C    C71    29.34200   25.05800   14.24800
      N    N72    28.06000   22.04300   13.48600
      C    C73    28.36100   20.76300   12.86700
      C    C74    27.78200   19.56500   13.60600
      O    O75    27.68200   18.46800   13.05300
      N    N76    27.41200   19.76700   14.86600
      C    C77    26.82600   18.69800   15.66100
      C    C78    25.36500   18.47300   15.31100
      O    O79    24.67700   19.40100   14.89100
      C    C80    26.96000   19.01600   17.15100
      C    C81    28.40400   19.17000   17.59600
      C    C82    28.52100   19.55300   19.05400
      O    O83    27.58500   19.37900   19.83100
      N    N84    29.67700   20.08100   19.43200
      N    N85    24.89900   17.23600   15.46600
      C    C86    23.48100   16.95300   15.31700
      C    C87    22.77200   17.59100   16.49500
      O    O88    23.41000   17.90800   17.50400
      C    C89    23.17900   15.44900   15.33600
      O    O90    23.66300   14.88000   16.56200
      C    C91    23.82500   14.74400   14.14600
      N    N92    21.46000   17.77200   16.37200
      C    C93    20.68700   18.42400   17.42000
      C    C94    20.74300   17.63100   18.72000
      O    O95    20.80900   18.20400   19.80600
      C    C96    19.23200   18.64000   16.99700
      C    C97    18.39500   19.12900   18.19600
      C    C98    19.17200   19.65400   15.86200
      N    N99    20.72100   16.30800   18.59400
      C    C100    20.83200   15.41800   19.73600
      C    C101    22.13600   15.70400   20.48700
      O    O102    22.13300   15.99900   21.69300
      C    C103    20.79100   13.95900   19.24900
      C    C104    21.03600   12.96900   20.35000
      O    O105    20.50200   13.17900   21.46200
      O    O106    21.76200   11.98000   20.10300
      N    N107    23.24900   15.61600   19.75800
      C    C108    24.57800   15.83500   20.33400
      C    C109    24.76100   17.26300   20.84400
      O    O110    25.29100   17.48900   21.93300
      C    C111    25.67200   15.47400   19.32000
      C    C112    27.06900   15.91400   19.81800
      C    C113    25.63100   13.97100   19.03900
      N    N114    24.32200   18.23400   20.05600
      C    C115    24.44300   19.62600   20.45500
      C    C116    23.76900   19.86600   21.81500
      O    O117    24.32800   20.53600   22.68500
      C    C118    23.85900   20.53200   19.38900
      N    N119    22.57500   19.30900   22.00300
      C    C120    21.84400   19.51800   23.25200
      C    C121    22.53400   18.87000   24.44900
      O    O122    22.57100   19.44300   25.54800
      C    C123    20.41100   19.01800   23.12600
      C    C124    19.57100   19.86100   22.18700
      C    C125    18.14800   19.37400   22.11800
      O    O126    17.77600   18.65800   21.20000
      N    N127    17.34900   19.73300   23.11600
      N    N128    23.06900   17.67000   24.24600
      C    C129    23.80600   17.00700   25.31100
      C    C130    25.02100   17.82600   25.71200
      O    O131    25.32600   17.92500   26.89100
      C    C132    24.19300   15.57200   24.93000
      C    C133    23.02100   14.61700   25.03000
      C    C134    23.35600   13.21800   24.56000
      C    C135    22.08400   12.37700   24.43200
      N    N136    22.30500   11.19800   23.53900
      N    N137    25.70700   18.43600   24.75000
      C    C138    26.85800   19.25700   25.11600
      C    C139    26.43500   20.58400   25.74800
      O    O140    27.13200   21.11900   26.60600
      C    C141    27.80300   19.48500   23.93200
      C    C142    28.41300   18.20200   23.41500
      O    O143    28.69000   18.08100   22.22500
      N    N144    28.62200   17.23300   24.29900
      N    N145    25.28000   21.09600   25.33600
      C    C146    24.68800   22.27200   25.97000
      C    C147    24.33500   21.97900   27.41700
      O    O148    24.54800   22.81600   28.28900
      C    C149    23.41900   22.71300   25.22700
      C    C150    23.68500   23.41000   23.90400
     Se   Se151    24.15400   25.29900   24.08500
      C    C152    24.38900   25.67600   22.17900
      N    N153    23.78700   20.78700   27.65800
      C    C154    23.40800   20.36200   29.00200
      C    C155    24.58400   20.35200   29.97200
      O    O156    24.41800   20.59700   31.16800
      C    C157    22.78300   18.96200   28.97400
      C    C158    21.44100   18.92900   28.26900
      O    O159    20.79000   19.95400   28.07700
      N    N160    21.02300   17.74300   27.88200
      N    N161    25.76700   20.04300   29.45400
      C    C162    26.97400   19.91600   30.26900
      C    C163    27.32800   21.25600   30.89600
      O    O164    27.88600   21.32100   31.99300
      C    C165    28.15300   19.40200   29.41300
      C    C166    29.43700   19.38000   30.21500
      C    C167    27.84000   18.01600   28.88500
      N    N168    26.98900   22.32300   30.18400
      C    C169    27.19800   23.68600   30.64600
      C    C170    26.02100   24.19400   31.47500
      O    O171    26.06400   25.30800   31.99300
      C    C172    27.41500   24.62200   29.45000
      C    C173    28.75500   24.44000   28.78400
      C    C174    29.05300   23.27700   28.08500
      C    C175    29.72100   25.42800   28.85600
      C    C176    30.28400   23.10100   27.48400
      C    C177    30.95900   25.26800   28.24900
      C    C178    31.23300   24.09900   27.56700
      O    O179    32.45900   23.94300   26.96000
      N    N180    24.96500   23.39200   31.57800
      C    C181    23.79800   23.77700   32.35300
      C    C182    22.60700   24.28300   31.55000
      O    O183    21.52600   24.47200   32.10100
      N    N184    22.78300   24.48500   30.25000
      C    C185    21.68100   24.92400   29.39700
      C    C186    20.70500   23.78400   29.09800
      O    O187    21.10900   22.70000   28.65600
      C    C188    22.21100   25.50600   28.08200
      C    C189    23.16500   26.65100   28.26100
      C    C190    22.70200   27.90800   28.62500
      C    C191    24.52000   26.47600   28.04700
      C    C192    23.58200   28.96600   28.78300
      C    C193    25.40800   27.52500   28.20200
      C    C194    24.94400   28.77200   28.56900
      N    N195    19.41700   24.03200   29.31400
      C    C196    18.41200   23.00800   29.07400
      C    C197    17.24500   23.49900   28.22700
      O    O198    16.43300   22.69400   27.78400
      C    C199    17.84000   22.46900   30.39600
      O    O200    17.19400   23.53600   31.10000
      C    C201    18.95400   21.90200   31.25700
      N    N202    17.16600   24.81000   28.00800
      C    C203    16.04400   25.40800   27.28600
      C    C204    16.44000   25.82000   25.87400
      O    O205    17.27900   26.70000   25.70100
      C    C206    15.52500   26.64000   28.03400
      C    C207    15.19700   26.40300   29.49900
      C    C208    14.72100   27.69800   30.15900
      C    C209    14.19800   27.46600   31.56600
      N    N210    15.26900   27.01900   32.50200
      N    N211    15.81300   25.20400   24.87200
      C    C212    16.18200   25.44000   23.47500
      C    C213    14.97900   25.72500   22.58800
      O    O214    13.91400   25.12600   22.75500
      C    C215    16.93000   24.23300   22.89700
      C    C216    18.01900   23.73100   23.77700
      C    C217    17.81900   22.61600   24.57800
      C    C218    19.23200   24.38400   23.83300
      C    C219    18.82500   22.15800   25.40400
      C    C220    20.24500   23.92700   24.65800
      C    C221    20.04100   22.81900   25.44200
      N    N222    15.15900   26.64600   21.64900
      C    C223    14.22600   26.79900   20.53900
      C    C224    14.95500   26.32600   19.29300
      O    O225    16.17400   26.20800   19.30600
      C    C226    13.78300   28.25500   20.39500
      O    O227    14.86900   29.09500   20.03600
      N    N228    14.22600   26.05600   18.21400
      C    C229    14.85700   25.55000   16.99900
      C    C230    14.23000   26.15100   15.74600
      O    O231    13.01100   26.35100   15.67400
      C    C232    14.75500   24.02200   16.93100
      C    C233    15.38500   23.30400   18.09600
      C    C234    15.29200   21.79200   17.99000
      O    O235    15.17600   21.22900   16.89500
      N    N236    15.36500   21.12600   19.13000
      N    N237    15.07700   26.41300   14.75700
      C    C238    14.63900   26.92300   13.47100
      C    C239    15.47100   26.27000   12.38200
      O    O240    16.68100   26.08800   12.54200
      C    C241    14.81000   28.43100   13.42100
      N    N242    14.82600   25.94000   11.26900
      C    C243    15.51300   25.37900   10.11100
      C    C244    16.03100   26.48200    9.20700
      O    O245    15.33200   27.46000    8.95700
      C    C246    14.57200   24.47800    9.30700
      O    O247    14.10100   23.41300   10.10200
      N    N248    17.25400   26.30900    8.71300
      C    C249    17.88000   27.26600    7.81300
      C    C250    18.52800   26.51600    6.65900
      O    O251    19.04600   25.41500    6.83900
      C    C252    18.96300   28.08200    8.53800
      C    C253    18.37800   28.78100    9.75900
      C    C254    20.10700   27.18100    8.95300
      N    N255    18.48400   27.09600    5.46900
      C    C256    19.24100   26.53900    4.35700
      C    C257    20.70900   26.69600    4.68900
      O    O258    21.10700   27.69300    5.29200
      C    C259    18.92800   27.28100    3.06500
      C    C260    17.48000   27.14300    2.65800
      O    O261    16.69100   28.07300    2.92100
      O    O262    17.12400   26.09600    2.09300
      N    N263    21.51300   25.72100    4.28900
      C    C264    22.93300   25.70800    4.63000
      C    C265    23.63700   24.64000    3.81700
      O    O266    23.00300   23.68100    3.38700
      C    C267    23.11400   25.42000    6.12200
      O    O268    24.44400   25.05400    6.42700
      N    N269    24.94800   24.81300    3.59000
      C    C270    25.80800   23.79000    2.98600
      C    C271    25.96000   22.56100    3.88000
      O    O272    26.35000   21.50100    3.39700
      C    C273    27.16400   24.49000    2.87800
      C    C274    26.86200   25.93400    2.93200
      C    C275    25.66300   26.08400    3.79400
      N    N276    25.68400   22.69900    5.17200
      C    C277    25.83700   21.57300    6.09100
      C    C278    24.74900   20.52700    5.85300
      O    O279    23.60800   20.87400    5.54700
      C    C280    25.79900   22.04900    7.55000
      C    C281    27.04600   22.80200    7.99200
      C    C282    26.96300   23.19400    9.45600
      N    N283    28.16600   23.89500    9.88700
      C    C284    29.34500   23.29900   10.06700
      N    N285    29.48400   21.99300    9.84900
      N    N286    30.38900   24.01100   10.46200
      N    N287    25.10000   19.24100    5.99700
      C    C288    24.09600   18.18100    5.91700
      C    C289    22.88400   18.52400    6.78300
      O    O290    23.04300   19.04800    7.88900
      C    C291    24.83000   16.97000    6.49600
      C    C292    26.27100   17.22100    6.17900
      C    C293    26.44800   18.71300    6.28700
      N    N294    21.69000   18.22900    6.27700
      C    C295    20.46300   18.43400    7.03700
      C    C296    20.57500   17.77100    8.39500
      O    O297    21.03200   16.64100    8.50000
      C    C298    19.26300   17.87900    6.27800
      N    N299    20.15500   18.47900    9.43300
      C    C300    20.15100   17.94300   10.78000
      C    C301    21.27200   18.52200   11.62100
      O    O302    21.22400   18.47100   12.84900
      N    N303    22.29000   19.07100   10.96400
      C    C304    23.42200   19.62500   11.69900
      C    C305    23.15200   21.05800   12.13500
      O    O306    22.59500   21.85300   11.38100
      C    C307    24.70600   19.54800   10.86300
      C    C308    25.26600   18.14500   10.73700
      C    C309    26.62200   18.11700   10.06100
      O    O310    27.13300   19.19900    9.70100
      O    O311    27.16400   17.00900    9.87600
      N    N312    23.54000   21.38800   13.36000
      C    C313    23.44400   22.76700   13.83100
      C    C314    24.44500   23.67300   13.09300
      O    O315    25.62400   23.34900   12.99300
      C    C316    23.64400   22.85300   15.36100
      C    C317    23.63800   24.29100   15.82000
      C    C318    22.54700   22.06200   16.08100
      N    N319    23.96900   24.79900   12.56200
      C    C320    24.84400   25.72000   11.82900
      C    C321    25.42000   26.75800   12.78200
      O    O322    26.48200   27.33500   12.53500
      C    C323    24.09500   26.47600   10.71600
      O    O324    23.03500   27.24700   11.29500
      C    C325    23.52500   25.50600    9.67600
      N    N326    24.68400   26.99300   13.86500
      C    C327    25.07300   27.93100   14.90100
      C    C328    23.89600   28.18600   15.82700
      O    O329    22.82400   27.58500   15.67100
      N    N330    24.09500   29.07700   16.79500
      C    C331    23.06400   29.35800   17.78600
      C    C332    22.84000   30.84100   17.99000
      O    O333    23.68100   31.66800   17.64900
      C    C334    23.41100   28.76000   19.15800
      O    O335    24.58600   29.39500   19.67500
      C    C336    23.65400   27.26500   19.04100
      N    N337    21.69200   31.16200   18.56900
      C    C338    21.39300   32.51400   18.99100
      C    C339    20.89900   32.47600   20.42900
      O    O340    19.83500   31.91600   20.68500
      C    C341    20.31300   33.09900   18.09400
      C    C342    20.17100   34.59100   18.26000
      O    O343    20.84900   35.20100   19.08200
      N    N344    19.28300   35.18900   17.48300
      N    N345    21.66800   33.06000   21.37600
      C    C346    22.93300   33.79300   21.21500
      C    C347    24.05200   32.91700   20.65700
      O    O348    24.03200   31.70200   20.80700
      C    C349    23.26900   34.24000   22.64700
      C    C350    21.99100   34.20000   23.37400
      C    C351    21.22800   33.05500   22.78100
      N    N352    25.02100   33.53300   19.98500
      C    C353    26.07300   32.74200   19.34400
      C    C354    27.09600   32.18300   20.32700
      O    O355    27.22100   32.66100   21.46000
      C    C356    26.73800   33.76100   18.42200
      C    C357    26.52800   35.06400   19.11100
      C    C358    25.14000   34.96500   19.67200
      N    N359    27.82600   31.17200   19.87100
      C    C360    28.87600   30.54500   20.65500
      C    C361    29.83300   31.58600   21.24100
      O    O362    30.18800   32.56400   20.58600
      C    C363    29.63000   29.54000   19.79100
      N    N364    30.23700   31.37600   22.48800
      C    C365    31.16200   32.28200   23.14100
      C    C366    30.48400   33.40300   23.91500
      O    O367    31.14800   34.13000   24.65700
      N    N368    29.17300   33.56000   23.74700
      C    C369    28.44700   34.56700   24.51000
      C    C370    28.27600   34.05200   25.93400
      O    O371    27.94900   32.89000   26.12500
      C    C372    27.03400   34.81800   23.95200
      O    O373    27.09400   35.13000   22.55900
      C    C374    26.37400   35.96700   24.69400
      N    N375    28.49400   34.91400   26.92500
      C    C376    28.19200   34.57800   28.32100
      C    C377    26.76300   34.98800   28.68500
      O    O378    26.39900   36.16300   28.60100
      C    C379    29.21500   35.21600   29.28800
      O    O380    30.49700   34.62000   29.06000
      C    C381    28.81600   34.99600   30.74600
      N    N382    25.94300   34.01000   29.06400
      C    C383    24.54800   34.26900   29.37500
      C    C384    24.14600   33.50700   30.62800
      O    O385    24.82700   32.57100   31.03200
      C    C386    23.62700   33.84600   28.21400
      C    C387    23.96100   34.62600   26.95200
      C    C388    23.75000   32.34300   27.95100
      N    N389    23.03500   33.90900   31.25800
      C    C390    22.57600   33.10000   32.39000
      C    C391    22.13100   31.72800   31.88600
      O    O392    21.58400   31.63100   30.77700
      C    C393    21.37400   33.88700   32.92500
      C    C394    21.49300   35.25000   32.35100
      C    C395    22.20000   35.10000   31.04100
      N    N396    22.37000   30.68200   32.67300
      C    C397    22.04100   29.32500   32.24800
      C    C398    20.53300   29.06900   32.13700
      O    O399    20.12600   28.05700   31.60300
      C    C400    22.72900   28.23700   33.11600
      C    C401    24.24000   28.33400   32.98000
      C    C402    22.29900   28.33000   34.57800
      N    N403    19.70700   30.00500   32.58700
      C    C404    18.27000   29.87700   32.36200
      C    C405    17.83300   30.50200   31.02700
      O    O406    16.63900   30.59600   30.73900
      C    C407    17.47000   30.45300   33.54100
      C    C408    17.70300   31.94000   33.75000
      O    O409    16.96900   32.53900   34.56000
      O    O410    18.61400   32.51400   33.11500
      N    N411    18.80500   30.92800   30.22300
      C    C412    18.53000   31.57500   28.94100
      C    C413    18.00300   30.55700   27.95100
      O    O414    18.44400   29.41400   27.95400
      C    C415    19.81300   32.17600   28.36000
      O    O416    20.17400   33.38300   29.00100
      N    N417    17.06600   30.96200   27.10300
      C    C418    16.66400   30.10700   25.99400
      C    C419    17.67600   30.25400   24.86200
      O    O420    18.00400   31.37200   24.45500
      C    C421    15.26000   30.44100   25.44700
      C    C422    14.96700   29.57700   24.22700
      C    C423    14.18500   30.21900   26.51600
      N    N424    18.18100   29.12900   24.36900
      C    C425    19.17500   29.15100   23.30200
      C    C426    18.54500   28.62800   22.01800
      O    O427    18.05400   27.50000   21.98800
      C    C428    20.38200   28.24800   23.62500
      C    C429    20.88800   28.48200   25.05100
      C    C430    21.50100   28.48100   22.63000
      C    C431    21.55000   29.82000   25.25100
      N    N432    18.55400   29.43700   20.96100
      C    C433    18.03800   28.96100   19.68100
      C    C434    19.08100   28.18600   18.90700
      O    O435    20.18900   28.67700   18.68200
      C    C436    17.54000   30.09900   18.79700
      C    C437    16.96900   29.56200   17.49700
      C    C438    16.83500   30.61700   16.42200
      O    O439    17.12800   31.79500   16.69500
      O    O440    16.44200   30.26200   15.29400
      N    N441    18.71100   26.98300   18.48200
      C    C442    19.56900   26.17100   17.64100
      C    C443    19.11600   26.35200   16.21000
      O    O444    17.97900   26.01800   15.87800
      C    C445    19.44000   24.69600   18.01900
      C    C446    19.54700   24.35800   19.50800
      C    C447    19.32200   22.86100   19.71800
      C    C448    20.89500   24.80700   20.07400
      N    N449    20.00000   26.88200   15.36800
      C    C450    19.72300   27.00900   13.94100
      C    C451    20.18300   25.73300   13.25400
      O    O452    21.35400   25.37700   13.32400
      C    C453    20.44200   28.22600   13.35000
      C    C454    19.97800   29.55200   13.91200
      C    C455    20.82600   30.71600   13.43000
      O    O456    21.01400   31.70100   14.14600
      N    N457    21.34300   30.60800   12.21000
      N    N458    19.25600   25.05100   12.58800
      C    C459    19.47800   23.68200   12.14400
      C    C460    19.42500   23.54800   10.61900
      O    O461    18.40800   23.85500    9.98800
      C    C462    18.42700   22.74300   12.77100
      C    C463    18.67200   21.30600   12.36300
      C    C464    18.42400   22.88700   14.30200
      N    N465    20.51400   23.09200   10.02300
      C    C466    20.53400   22.93000    8.56900
      C    C467    19.40100   22.03600    8.04700
      O    O468    19.11000   20.98200    8.61900
      C    C469    21.87200   22.35800    8.10500
      O    O470    21.88100   22.23700    6.69000
      N    N471    18.76900   22.45800    6.95900
      C    C472    17.92300   21.56200    6.18800
      C    C473    18.55400   21.37300    4.81800
      O    O474    17.87000   21.05700    3.85100
      C    C475    16.49100   22.10000    6.05100
      C    C476    16.39300   23.53400    5.53400
      C    C477    14.94800   23.87000    5.16300
      C    C478    14.75900   25.35100    4.89600
      N    N479    13.40400   25.63900    4.36100
      N    N480    19.86500   21.57900    4.74300
      C    C481    20.59300   21.38700    3.50400
      C    C482    20.48400   22.55200    2.54000
      O    O483    20.99600   22.48700    1.41800
      O    O484    19.89300   23.58700    2.83800
