# CIF file generated by openbabel 2.3.2, see http://openbabel.sf.net
data_I
_chemical_name_common '../proteins/pdb/3VEP.pdb'
_cell_length_a 99.74
_cell_length_b 110.72
_cell_length_c 73.13
_cell_angle_alpha 90
_cell_angle_beta 133
_cell_angle_gamma 90
_space_group_name_H-M_alt 'C 1 2 1'
_space_group_name_Hall 'C 2y'
loop_
    _symmetry_equiv_pos_as_xyz
    'x,y,z'
    '-x,y,-z'
    '1/2+x,1/2+y,z'
    '1/2-x,1/2+y,-z'
loop_
    _atom_site_type_symbol
    _atom_site_label
    _atom_site_Cartn_x
    _atom_site_Cartn_y
    _atom_site_Cartn_z
      N    N1   -11.87700   31.32900   17.14000
      C    C2   -11.07700   31.19500   15.92500
      C    C3    -9.73700   31.90600   16.06000
      O    O4    -9.66900   32.97000   16.67200
      C    C5   -11.95800   31.85300   14.86800
      C    C6   -12.77200   32.83700   15.58900
      C    C7   -12.97100   32.30600   16.98200
      N    N8    -8.68600   31.29000   15.53400
      C    C9    -7.32500   31.82100   15.65300
      C    C10    -7.23800   33.32700   15.45600
      O    O11    -6.38500   33.96800   16.06000
      C    C12    -6.56900   31.10100   14.53200
      C    C13    -7.62300   30.64400   13.58600
      C    C14    -8.80800   30.32800   14.43000
      N    N15    -8.10300   33.88300   14.61900
      C    C16    -8.06900   35.31100   14.33500
      C    C17    -8.29500   36.16100   15.57900
      O    O18    -7.81900   37.29100   15.65900
      C    C19    -9.08100   35.67100   13.24700
      C    C20    -8.45700   36.01100   11.89400
      C    C21    -8.36500   37.51200   11.72300
      C    C22    -7.08200   35.37600   11.78400
      N    N23    -9.01900   35.61900   16.55000
      C    C24    -9.27900   36.34500   17.78600
      C    C25    -8.04900   36.32000   18.68500
      O    O26    -7.88500   37.16800   19.55700
      C    C27   -10.49900   35.77600   18.50400
      C    C28   -11.79500   36.16500   17.83300
      O    O29   -11.73800   36.94300   16.86100
      O    O30   -12.86600   35.69700   18.27100
      N    N31    -7.18600   35.33800   18.45900
      C    C32    -5.91400   35.25300   19.16000
      C    C33    -5.14100   36.50800   18.88200
      O    O34    -4.59300   37.13800   19.78600
      C    C35    -5.06900   34.15500   18.54800
      C    C36    -4.63200   33.12200   19.48000
      C    C37    -5.78700   32.30900   19.97000
      O    O38    -6.94100   32.59800   19.55600
      O    O39    -5.52500   31.38400   20.77100
      N    N40    -5.05000   36.83300   17.59800
      C    C41    -4.21300   37.93100   17.16900
      C    C42    -4.75000   39.22200   17.76100
      O    O43    -4.00800   39.97600   18.37700
      C    C44    -4.14500   37.98400   15.65100
      C    C45    -3.02900   37.16000   14.95900
      C    C46    -2.12600   36.27600   15.86300
      C    C47    -3.50100   36.37500   13.75200
      N    N48    -6.04800   39.45300   17.58800
      C    C49    -6.69500   40.65700   18.09900
      C    C50    -6.41400   40.79500   19.56900
      O    O51    -6.20300   41.89000   20.06300
      C    C52    -8.18900   40.61800   17.87500
      N    N53    -6.41300   39.68100   20.28300
      C    C54    -6.28500   39.76200   21.72600
      C    C55    -4.87200   40.12600   22.19200
      O    O56    -4.69000   40.88200   23.14900
      C    C57    -6.74500   38.49100   22.41000
      C    C58    -6.09400   38.38700   23.75800
      C    C59    -6.75500   37.43000   24.70100
      N    N60    -8.17300   37.28300   24.43000
      C    C61    -8.78600   36.10500   24.41800
      N    N62    -8.08500   34.99900   24.65100
      N    N63   -10.08900   36.02300   24.17000
      N    N64    -3.86700   39.57900   21.52500
      C    C65    -2.49600   39.96500   21.82300
      C    C66    -2.32400   41.47300   21.49300
      O    O67    -1.73600   42.24500   22.27100
      C    C68    -1.46600   39.06600   21.04800
      O    O69    -2.02400   37.77500   20.84500
      C    C70    -0.22400   38.86300   21.83400
      N    N71    -2.84700   41.88700   20.34000
      C    C72    -2.71900   43.27400   19.91200
      C    C73    -3.29400   44.19100   20.97300
      O    O74    -2.68900   45.20300   21.33700
      C    C75    -3.46700   43.49800   18.60900
      C    C76    -2.97700   44.69700   17.85800
      O    O77    -1.77800   45.02300   17.92300
      O    O78    -3.80000   45.32000   17.17700
      N    N79    -4.46500   43.83500   21.48300
      C    C80    -5.06500   44.59500   22.55700
      C    C81    -4.21700   44.57600   23.83200
      O    O82    -4.01900   45.62300   24.45300
      C    C83    -6.46800   44.09000   22.81900
      C    C84    -7.46800   44.99900   22.09600
      C    C85    -7.14600   45.18300   20.60400
      C    C86    -8.90300   44.58500   22.32200
      N    N87    -3.68400   43.41400   24.21500
      C    C88    -2.83700   43.36100   25.40600
      C    C89    -1.61900   44.29200   25.27400
      O    O90    -1.35600   45.11000   26.16000
      C    C91    -2.36900   41.94200   25.69800
      C    C92    -1.66100   41.72600   27.04400
      C    C93    -0.30800   41.05500   26.93400
      C    C94    -1.63400   42.95300   28.00000
      N    N95    -0.87800   44.15300   24.17400
      C    C96     0.23900   45.05700   23.89500
      C    C97    -0.18600   46.55400   23.86600
      O    O98     0.57000   47.41400   24.33000
      C    C99     0.97400   44.65700   22.61700
      C    C100     1.63800   43.26500   22.67400
      C    C101     2.34400   42.93300   21.38900
      C    C102     2.64300   43.12300   23.82200
      N    N103    -1.38200   46.85800   23.35100
      C    C104    -1.83400   48.24700   23.31600
      C    C105    -2.03700   48.75800   24.74200
      O    O106    -1.76000   49.92500   25.02500
      C    C107    -3.15700   48.42300   22.54600
      C    C108    -2.98800   48.40200   21.01100
      O    O109    -1.84600   48.48600   20.51200
      O    O110    -4.02600   48.29500   20.29900
      N    N111    -2.52800   47.89400   25.63400
      C    C112    -2.73000   48.26200   27.03300
      C    C113    -1.39400   48.41000   27.74600
      O    O114    -1.18100   49.35700   28.50400
      C    C115    -3.58900   47.25100   27.73100
      N    N116    -0.49200   47.46800   27.50100
      C    C117     0.85400   47.57600   28.04200
      C    C118     1.46000   48.91000   27.65300
      O    O119     2.08700   49.56200   28.45900
      C    C120     1.73100   46.43600   27.54300
      C    C121     1.41900   45.15700   28.34700
      C    C122     2.04000   43.87300   27.76600
      C    C123     1.71400   45.29300   29.83800
      N    N124     1.26700   49.30400   26.40600
      C    C125     1.94300   50.46500   25.85200
      C    C126     1.43000   51.76000   26.47900
      O    O127     2.17800   52.71700   26.63500
      C    C128     1.76800   50.51700   24.35500
      N    N129     0.15100   51.77800   26.81000
      C    C130    -0.49300   52.92300   27.42900
      C    C131    -0.38300   52.85600   28.94000
      O    O132    -1.01100   53.63100   29.64500
      C    C133    -1.96900   52.92800   27.09100
      C    C134    -2.30500   53.24300   25.68100
      C    C135    -3.78700   53.09600   25.43500
      O    O136    -4.39300   52.17000   26.03600
      O    O137    -4.34000   53.91200   24.66000
      N    N138     0.38700   51.89500   29.41900
      C    C139     0.53400   51.68100   30.84800
      C    C140    -0.80000   51.40000   31.59200
      O    O141    -0.93700   51.65000   32.76600
      C    C142     1.34400   52.82600   31.46100
      C    C143     2.71500   53.06300   30.78900
      C    C144     3.75400   53.66800   31.76300
      N    N145     3.03800   54.19600   32.90300
      C    C146     3.16200   53.80200   34.15500
      N    N147     4.05000   52.88800   34.51200
      N    N148     2.39900   54.37500   35.05800
      N    N149    -1.77200   50.84200   30.89100
      C    C150    -3.04900   50.43700   31.47900
      C    C151    -2.92400   49.11700   32.25200
      O    O152    -2.53300   48.10000   31.68000
      C    C153    -4.05200   50.22500   30.35500
      C    C154    -5.47600   50.01400   30.79200
      C    C155    -6.39800   49.69800   29.61900
      O    O156    -6.40700   50.48400   28.64400
      O    O157    -7.10500   48.65600   29.65800
      N    N158    -3.25300   49.13100   33.54100
      C    C159    -3.20300   47.93100   34.37800
      C    C160    -4.37700   47.00700   34.06800
      O    O161    -5.54000   47.38500   34.26000
      C    C162    -3.23800   48.30200   35.86800
      C    C163    -2.14200   49.28000   36.33800
      C    C164    -0.72900   48.68800   36.27900
      O    O165    -0.47500   47.67600   36.97400
      O    O166     0.12400   49.24700   35.54300
      N    N167    -4.07700   45.80000   33.59100
      C    C168    -5.11500   44.82000   33.29500
      C    C169    -5.08700   43.64800   34.28400
      O    O170    -4.01800   43.20500   34.74800
      C    C171    -5.00800   44.30100   31.85500
      C    C172    -6.07800   43.22600   31.57000
      C    C173    -5.12100   45.45500   30.88900
      N    N174    -6.27100   43.13900   34.60100
      C    C175    -6.39100   41.99400   35.50300
      C    C176    -6.67400   40.68100   34.76800
      O    O177    -7.74400   40.49400   34.20200
      C    C178    -7.47500   42.25600   36.54400
      C    C179    -7.05000   41.83600   37.93200
      O    O180    -5.86000   42.04700   38.27900
      O    O181    -7.90300   41.29000   38.66800
      N    N182    -5.71000   39.76800   34.77800
      C    C183    -5.86800   38.51800   34.05100
      C    C184    -6.38700   37.44600   34.97700
      O    O185    -6.10200   37.45700   36.17900
      C    C186    -4.55800   38.06100   33.40500
      C    C187    -4.10300   38.94200   32.29600
      C    C188    -4.67200   38.84600   31.04500
      C    C189    -3.11500   39.88800   32.50700
      C    C190    -4.26900   39.67400   30.01900
      C    C191    -2.70500   40.71100   31.48600
      C    C192    -3.28800   40.60200   30.23700
      N    N193    -7.15900   36.52900   34.40000
      C    C194    -7.60600   35.32800   35.11400
      C    C195    -6.42700   34.43200   35.51600
      O    O196    -6.22500   34.16000   36.70000
      C    C197    -8.61100   34.55200   34.27800
      N    N198    -5.64000   34.01800   34.52500
      C    C199    -4.45200   33.19700   34.75000
      C    C200    -3.32300   34.03100   35.34000
      O    O201    -2.86800   34.97200   34.71000
      C    C202    -4.00800   32.55900   33.42500
      C    C203    -2.88300   31.55000   33.58700
      O    O204    -2.26800   31.47100   34.66300
      O    O205    -2.59000   30.84300   32.60200
      N    N206    -2.86900   33.66300   36.54700
      C    C207    -1.87600   34.40100   37.34600
      C    C208    -0.56400   34.53000   36.60300
      O    O209     0.21700   35.43500   36.89200
      C    C210    -1.66100   33.50500   38.58000
      C    C211    -2.85600   32.61400   38.64300
      C    C212    -3.34400   32.44600   37.22900
      N    N213    -0.32100   33.61800   35.67000
      C    C214     0.91200   33.62800   34.90200
      C    C215     0.88100   34.76700   33.91000
      O    O216     1.88000   35.44600   33.73200
      C    C217     1.08600   32.30400   34.16400
      C    C218     1.14700   31.09600   35.07100
      C    C219     1.48800   29.83400   34.31700
      N    N220     1.74300   28.71500   35.22600
      C    C221     1.98500   27.46100   34.84800
      N    N222     2.00500   27.15900   33.56300
      N    N223     2.21800   26.51700   35.76100
      N    N224    -0.26100   34.95000   33.25100
      C    C225    -0.53700   36.18200   32.51400
      C    C226    -0.22400   37.39800   33.39400
      O    O227     0.62200   38.20900   33.03200
      C    C228    -1.99500   36.23700   32.05800
      C    C229    -2.34400   35.12500   31.07200
      O    O230    -1.42000   34.62100   30.40200
      O    O231    -3.53600   34.76100   30.95600
      N    N232    -0.88400   37.50200   34.55400
      C    C233    -0.63100   38.60300   35.48300
      C    C234     0.85700   38.78200   35.65700
      O    O235     1.34000   39.90300   35.65200
      C    C236    -1.30300   38.40400   36.86600
      C    C237    -2.79100   38.73800   36.85400
      O    O238    -3.15800   39.76200   36.25500
      O    O239    -3.60200   37.97400   37.42400
      N    N240     1.59000   37.67800   35.79000
      C    C241     3.00800   37.77300   36.14900
      C    C242     3.79200   38.35300   34.98900
      O    O243     4.64300   39.24000   35.16700
      C    C244     3.58000   36.40400   36.54600
      N    N245     3.49800   37.83100   33.80000
      C    C246     4.15800   38.26900   32.58300
      C    C247     3.87900   39.77400   32.27700
      O    O248     4.79400   40.54400   32.01400
      C    C249     3.72700   37.36500   31.43400
      C    C250     4.15300   37.82400   30.03900
      C    C251     5.64100   38.10600   30.00200
      C    C252     3.74700   36.80000   28.95400
      N    N253     2.61700   40.18100   32.32300
      C    C254     2.24500   41.57600   32.13600
      C    C255     3.01000   42.48200   33.10600
      O    O256     3.57100   43.50800   32.70500
      C    C257     0.73900   41.75000   32.30600
      N    N258     3.04000   42.08300   34.37800
      C    C259     3.77900   42.80700   35.41200
      C    C260     5.24000   42.93700   35.03000
      O    O261     5.83400   44.02100   35.07200
      C    C262     3.66100   42.08200   36.75000
      N    N263     5.80900   41.81700   34.62000
      C    C264     7.19600   41.78300   34.22900
      C    C265     7.49500   42.71300   33.05800
      O    O266     8.52800   43.38300   33.03900
      C    C267     7.57700   40.35900   33.90200
      C    C268     9.03500   40.18000   33.51800
      C    C269     9.97400   40.70500   34.60800
      C    C270     9.31900   38.70100   33.17000
      N    N271     6.56800   42.77100   32.10700
      C    C272     6.72100   43.61100   30.93500
      C    C273     6.53700   45.07200   31.27400
      O    O274     7.22700   45.93400   30.74100
      C    C275     5.71100   43.21200   29.86500
      C    C276     6.08400   41.96700   29.06000
      C    C277     4.86600   41.36500   28.28700
      C    C278     7.23400   42.29200   28.12600
      N    N279     5.59600   45.35400   32.16700
      C    C280     5.36200   46.72700   32.55300
      C    C281     6.59300   47.29900   33.23900
      O    O282     7.03100   48.42900   32.92300
      N    N283     7.17300   46.53000   34.16800
      C    C284     8.33200   47.03600   34.89800
      C    C285     9.46500   47.31300   33.92000
      O    O286    10.19400   48.29700   34.03100
      C    C287     8.77500   46.08100   36.00900
      C    C288     9.85400   46.66900   36.91100
      C    C289     9.51500   48.09800   37.39400
      O    O290    10.13800   49.09400   36.97300
      N    N291     8.51500   48.19700   38.27500
      N    N292     9.56100   46.44200   32.93300
      C    C293    10.62400   46.46800   31.94600
      C    C294    10.44000   47.64100   30.99800
      O    O295    11.38600   48.34300   30.67600
      C    C296    10.60600   45.12900   31.21800
      C    C297    11.37200   45.04400   29.95600
      C    C298    12.72800   44.90000   29.81800
      C    C299    10.82500   45.01700   28.63200
      N    N300    13.05400   44.80100   28.48200
      C    C301    11.90800   44.88000   27.73300
      C    C302     9.52700   45.11500   28.11700
      C    C303    11.73200   44.83800   26.34900
      C    C304     9.35200   45.06800   26.74000
      C    C305    10.44700   44.92800   25.87200
      N    N306     9.19900   47.83100   30.56900
      C    C307     8.74300   48.99600   29.83200
      C    C308     9.17300   50.25600   30.57600
      O    O309     9.79900   51.14600   30.00100
      C    C310     7.20000   48.95700   29.73100
      C    C311     6.51500   50.16000   29.04300
      C    C312     5.05400   50.34600   29.50000
      N    N313     4.92100   50.35800   30.95400
      C    C314     3.95600   49.76200   31.64500
      N    N315     2.99000   49.07500   31.04700
      N    N316     3.97100   49.83500   32.96600
      N    N317     8.83600   50.32800   31.85800
      C    C318     9.19300   51.48900   32.66500
      C    C319    10.70900   51.75700   32.69500
      O    O320    11.15900   52.84800   32.28600
      C    C321     8.54800   51.42500   34.06300
      C    C322     7.01700   51.66500   34.02300
      O    O323     6.44800   51.91800   32.93900
      O    O324     6.35900   51.63300   35.07500
      N    N325    11.49200   50.76200   33.12900
      C    C326    12.94700   50.91400   33.25300
      C    C327    13.56500   51.41300   31.96300
      O    O328    14.41800   52.28600   31.97200
      C    C329    13.62700   49.59000   33.62200
      C    C330    13.13100   49.01000   34.94200
      O    O331    12.47100   49.74800   35.72000
      O    O332    13.41900   47.80800   35.19400
      N    N333    13.13600   50.83600   30.85400
      C    C334    13.71000   51.12000   29.55800
      C    C335    13.27900   52.47000   29.00600
      O    O336    13.93000   53.01400   28.11100
      C    C337    13.32400   50.03500   28.55300
      C    C338    14.05500   48.69000   28.54000
      C    C339    13.69300   47.93900   27.24600
      C    C340    15.55200   48.88800   28.62800
      N    N341    12.16200   52.98900   29.50500
      C    C342    11.70700   54.30400   29.08900
      C    C343    12.46600   55.30800   29.93600
      O    O344    12.72900   56.44700   29.53900
      C    C345    10.19400   54.44600   29.31700
      C    C346     9.32800   54.12600   28.09800
      C    C347     7.87200   54.04000   28.52000
      N    N348     7.01600   53.37100   27.53900
      C    C349     5.68000   53.44700   27.53100
      N    N350     5.03400   54.16500   28.44100
      N    N351     4.98500   52.81200   26.60900
      N    N352    12.83100   54.83600   31.11700
      C    C353    13.33100   55.67300   32.18300
      C    C354    14.77100   56.07900   31.94200
      O    O355    15.69400   55.32000   32.22100
      C    C356    13.22400   54.91400   33.49300
      C    C357    13.21400   55.78900   34.67100
      C    C358    14.15200   56.72600   35.00300
      C    C359    12.21800   55.83100   35.70000
      N    N360    13.80300   57.34300   36.17800
      C    C361    12.62400   56.81100   36.62900
      C    C362    11.03000   55.13600   35.92700
      C    C363    11.87100   57.11700   37.76800
      C    C364    10.28200   55.43800   37.05800
      C    C365    10.70400   56.41900   37.96400
      N    N366    14.96500   57.31500   31.46300
      C    C367    16.23400   57.90300   30.97200
      C    C368    17.39100   57.89200   32.00200
      O    O369    18.12400   56.91900   32.11400
      C    C370    15.86700   59.37100   30.65600
      C    C371    14.42400   59.51500   30.94300
      C    C372    13.86400   58.29100   31.55100
