# CIF file generated by openbabel 2.3.2, see http://openbabel.sf.net
data_I
_chemical_name_common '../proteins/pdb/3VFZ.pdb'
_cell_length_a 80.43
_cell_length_b 35.7
_cell_length_c 50.92
_cell_angle_alpha 90
_cell_angle_beta 122.59
_cell_angle_gamma 90
_space_group_name_H-M_alt 'C 1 2 1'
_space_group_name_Hall 'C 2y'
loop_
    _symmetry_equiv_pos_as_xyz
    'x,y,z'
    '-x,y,-z'
    '1/2+x,1/2+y,z'
    '1/2-x,1/2+y,-z'
loop_
    _atom_site_type_symbol
    _atom_site_label
    _atom_site_Cartn_x
    _atom_site_Cartn_y
    _atom_site_Cartn_z
      N    N1   -29.00600  -13.31400   19.25400
      C    C2   -28.45000  -12.17300   19.97500
      C    C3   -28.15600  -11.03700   18.99100
      O    O4   -27.40600  -11.21800   18.02900
      C    C5   -27.18800  -12.59300   20.73500
      C    C6   -26.60000  -11.46700   21.57500
      O    O7   -26.74900  -11.49200   22.81900
      O    O8   -25.98000  -10.55900   20.98700
      N    N9   -28.76400   -9.87800   19.23200
      C    C10   -28.64500   -8.72800   18.33300
      C    C11   -27.20500   -8.25100   18.09800
      O    O12   -26.85800   -7.82900   16.98900
      C    C13   -29.49700   -7.56700   18.84300
      O    O14   -30.87000   -7.89200   18.78400
      N    N15   -26.37800   -8.29300   19.13800
      C    C16   -24.97500   -7.88900   19.00800
      C    C17   -24.20500   -8.93800   18.21500
      O    O18   -23.30900   -8.61200   17.44000
      C    C19   -24.29900   -7.67800   20.36900
      C    C20   -22.78200   -7.58800   20.19200
      C    C21   -24.83600   -6.42100   21.04200
      N    N22   -24.58100  -10.20000   18.39500
      C    C23   -24.02000  -11.29400   17.61000
      C    C24   -24.25700  -11.09300   16.11200
      O    O25   -23.34100  -11.25500   15.30900
      C    C26   -24.59500  -12.65500   18.05700
      O    O27   -23.99300  -13.04100   19.30200
      C    C28   -24.32900  -13.72700   17.00500
      N    N29   -25.48800  -10.74500   15.74200
      C    C30   -25.82400  -10.46000   14.35000
      C    C31   -25.02600   -9.25900   13.85400
      O    O32   -24.48200   -9.26900   12.75100
      C    C33   -27.32500  -10.18400   14.19400
      C    C34   -28.19200  -11.41200   13.92300
      C    C35   -29.68200  -11.08500   14.08900
      N    N36   -30.23300  -11.60700   15.34100
      C    C37   -31.35500  -11.17300   15.91000
      N    N38   -32.05100  -10.19200   15.34800
      N    N39   -31.78000  -11.71500   17.04700
      N    N40   -24.97300   -8.21400   14.67000
      C    C41   -24.17500   -7.04400   14.33100
      C    C42   -22.72400   -7.37200   14.01600
      O    O43   -22.15600   -6.84100   13.06800
      C    C44   -24.17300   -6.03300   15.46800
      C    C45   -23.25400   -4.87500   15.14200
     Se   Se46   -22.70500   -3.94000   16.75100
      C    C47   -21.75400   -2.44400   15.92600
      N    N48   -22.10200   -8.21200   14.83800
      C    C49   -20.70000   -8.52800   14.61500
      C    C50   -20.51200   -9.35400   13.34500
      O    O51   -19.52800   -9.17800   12.62100
      C    C52   -20.09400   -9.21300   15.84400
      C    C53   -19.81100   -8.23500   16.96900
      O    O54   -19.19500   -7.19000   16.75500
      N    N55   -20.27100   -8.56200   18.17100
      N    N56   -21.47300  -10.23000   13.05700
      C    C57   -21.43800  -11.02800   11.82900
      C    C58   -21.55700  -10.13700   10.59400
      O    O59   -20.85600  -10.34100    9.60500
      C    C60   -22.52100  -12.11400   11.84000
      C    C61   -22.29100  -13.18900   12.90200
      C    C62   -23.26400  -14.35100   12.79800
      O    O63   -23.29200  -15.19100   13.72600
      O    O64   -23.99500  -14.42800   11.78800
      N    N65   -22.43100   -9.13600   10.66600
      C    C66   -22.52400   -8.12400    9.62300
      C    C67   -21.21600   -7.34600    9.49400
      O    O68   -20.68200   -7.20500    8.39900
      C    C69   -23.67400   -7.15500    9.90400
      C    C70   -25.07200   -7.61600    9.51000
      C    C71   -26.12100   -6.83700   10.28800
      C    C72   -25.28100   -7.46400    8.00200
      N    N73   -20.70600   -6.83900   10.60900
      C    C74   -19.46200   -6.07300   10.57800
      C    C75   -18.32800   -6.90900    9.98900
      O    O76   -17.46100   -6.37700    9.30100
      C    C77   -19.08800   -5.57500   11.96900
      C    C78   -19.98200   -4.48000   12.55400
      C    C79   -19.39000   -3.99500   13.85200
      C    C80   -20.14800   -3.32100   11.57400
      N    N81   -18.34000   -8.21500   10.24700
      C    C82   -17.28500   -9.09900    9.74000
      C    C83   -17.31600   -9.20100    8.21400
      O    O84   -16.43100   -9.79300    7.60300
      C    C85   -17.36700  -10.49200   10.37800
      C    C86   -16.82500  -10.56300   11.79800
      C    C87   -16.64100  -11.99200   12.28600
      O    O88   -17.65100  -12.64700   12.62800
      O    O89   -15.48400  -12.46200   12.32600
      N    N90   -18.34600   -8.61300    7.61200
      C    C91   -18.50300   -8.56800    6.16600
      C    C92   -17.68400   -7.41300    5.55600
      O    O93   -17.34300   -7.43500    4.37100
      C    C94   -20.00300   -8.39600    5.81400
      C    C95   -20.53300   -9.61300    5.05700
      C    C96   -20.26400   -7.07700    5.09100
      C    C97   -20.57400  -10.87200    5.90100
      N    N98   -17.36900   -6.41500    6.38100
      C    C99   -16.65700   -5.20800    5.95700
      C    C100   -15.14700   -5.37200    6.06700
      O    O101   -14.66900   -6.18200    6.86100
      C    C102   -17.04800   -4.03200    6.86600
      C    C103   -18.51900   -3.64300    6.96000
      C    C104   -18.71000   -2.54000    8.00800
      C    C105   -19.01200   -3.20900    5.58600
      N    N106   -14.39100   -4.57000    5.29500
      C    C107   -12.94200   -4.46300    5.51400
      C    C108   -12.69400   -4.01500    6.94600
      O    O109   -13.49600   -3.25100    7.50200
      C    C110   -12.51800   -3.35000    4.54900
      C    C111   -13.58000   -3.32200    3.50500
      C    C112   -14.85500   -3.70500    4.19700
      N    N113   -11.60100   -4.48900    7.53700
      C    C114   -11.24500   -4.13800    8.89700
      C    C115   -11.35100   -2.63600    9.16700
      O    O116   -11.85800   -2.21900   10.20500
      C    C117    -9.82100   -4.63800    9.21000
      N    N118   -10.86800   -1.82800    8.23000
      C    C119   -10.79000   -0.38500    8.43600
      C    C120   -12.17300    0.23800    8.57800
      O    O121   -12.37100    1.17000    9.35000
      C    C122   -10.03700    0.27200    7.27600
      C    C123   -10.08800    1.78700    7.28600
      C    C124    -8.72600    2.38200    6.98200
      C    C125    -7.71000    1.94700    8.02400
      N    N126    -6.34400    2.47900    7.75400
      N    N127   -13.12200   -0.28800    7.81900
      C    C128   -14.48500    0.20300    7.86400
      C    C129   -15.16500   -0.23000    9.16600
      O    O130   -15.93600    0.52900    9.74100
      C    C131   -15.26800   -0.27300    6.63300
      C    C132   -14.79800    0.37300    5.32300
      C    C133   -15.51500   -0.17800    4.09400
      O    O134   -16.56200   -0.80900    4.20100
      N    N135   -14.94300    0.05800    2.92100
      N    N136   -14.87800   -1.43900    9.64100
      C    C137   -15.44000   -1.88700   10.91700
      C    C138   -14.96800   -0.96500   12.02200
      O    O139   -15.74600   -0.50600   12.85800
      C    C140   -14.99900   -3.31300   11.24300
      C    C141   -15.58400   -4.37000   10.33900
      C    C142   -14.82100   -5.68800   10.46300
      N    N143   -14.91100   -6.25500   11.80700
      C    C144   -14.30000   -7.37900   12.18000
      N    N145   -13.55100   -8.04200   11.30600
      N    N146   -14.42800   -7.83800   13.42200
      N    N147   -13.66700   -0.70600   12.01100
      C    C148   -13.03400    0.14200   12.98900
      C    C149   -13.65200    1.53500   12.98400
      O    O150   -13.97500    2.09400   14.03200
      C    C151   -11.54400    0.21400   12.64800
      C    C152   -10.78500    1.27400   13.36700
      C    C153    -9.32900    1.26600   12.95900
      O    O154    -9.04900    1.19500   11.73700
      O    O155    -8.47400    1.30800   13.86200
      N    N156   -13.83100    2.09600   11.79100
      C    C157   -14.42500    3.43100   11.65900
      C    C158   -15.85400    3.48500   12.20100
      O    O159   -16.21000    4.39400   12.95600
      C    C160   -14.35400    3.93400   10.18000
      C    C161   -12.93100    4.40300    9.89400
      C    C162   -15.34100    5.05200    9.93400
      C    C163   -12.64200    4.61000    8.40400
      N    N164   -16.68000    2.51500   11.82500
      C    C165   -18.07300    2.51800   12.28400
      C    C166   -18.16100    2.36700   13.79600
      O    O167   -18.95400    3.05300   14.43900
      C    C168   -18.89700    1.42500   11.60300
      C    C169   -19.17000    1.59900   10.10600
      C    C170   -20.22900    0.58900    9.63600
      C    C171   -19.65500    3.02200    9.83100
      N    N172   -17.35600    1.47100   14.36600
      C    C173   -17.35800    1.31700   15.82400
      C    C174   -16.96500    2.62700   16.51900
      O    O175   -17.63700    3.06700   17.46200
      C    C176   -16.48100    0.15500   16.28500
      C    C177   -17.02600   -1.17500   15.75800
      C    C178   -16.39700    0.11200   17.80300
      C    C179   -16.04300   -2.34600   15.99900
      N    N180   -15.88600    3.24900   16.04800
      C    C181   -15.41200    4.53000   16.59400
      C    C182   -16.42800    5.67900   16.47200
      O    O183   -16.67800    6.41100   17.45000
      C    C184   -14.07100    4.91300   15.95700
      C    C185   -12.86300    4.05400   16.38700
      C    C186   -11.57500    4.52100   15.69100
      C    C187   -12.66600    4.07100   17.91500
      N    N188   -17.01600    5.83600   15.28600
      C    C189   -17.96800    6.91600   15.04300
      C    C190   -19.28500    6.69400   15.77500
      O    O191   -19.86300    7.63300   16.31300
      C    C192   -18.29400    7.04100   13.54600
      C    C193   -17.14800    7.49900   12.68500
      C    C194   -16.95600    9.01000   12.80400
      N    N195   -17.95900    9.76700   12.05000
      C    C196   -18.90700   10.52800   12.59500
      N    N197   -19.01100   10.64400   13.91800
      N    N198   -19.76300   11.17400   11.81300
      N    N199   -19.79000    5.46700   15.73400
      C    C200   -21.18300    5.22000   16.12400
      C    C201   -21.28400    4.78000   17.57500
      O    O202   -22.01100    5.38000   18.35000
      C    C203   -21.85200    4.18800   15.22000
      C    C204   -23.23900    3.83900   15.76200
      C    C205   -21.94900    4.73500   13.78700
      N    N206   -20.52800    3.75300   17.94500
      C    C207   -20.60900    3.19600   19.29300
      C    C208   -19.86400    4.04300   20.29800
      O    O209   -20.38900    4.37400   21.36800
      C    C210   -20.08200    1.76100   19.34600
      C    C211   -20.05600    1.24400   20.80000
      C    C212   -20.94700    0.87600   18.47600
      N    N213   -18.63800    4.40900   19.95700
      C    C214   -17.82800    5.20300   20.86400
      C    C215   -18.16800    6.68300   20.75000
      O    O216   -18.18300    7.39900   21.74500
      C    C217   -16.33900    4.99600   20.61400
      C    C218   -15.54000    5.93100   21.49900
      C    C219   -15.96500    3.54200   20.87100
      N    N220   -18.43100    7.14600   19.53600
      C    C221   -18.93700    8.49600   19.35300
      C    C222   -17.90500    9.52500   18.94200
      O    O223   -18.17000   10.72900   19.04100
      N    N224   -16.73500    9.06600   18.48900
      C    C225   -15.73700    9.96400   17.90300
      C    C226   -16.35100   10.70400   16.72000
      O    O227   -17.19700   10.16200   16.00800
      C    C228   -14.50800    9.19300   17.41400
      C    C229   -13.40400    8.91500   18.43300
      C    C230   -13.95800    8.26000   19.67400
      C    C231   -12.31300    8.07600   17.82300
      N    N232   -15.92900   11.94700   16.52400
      C    C233   -16.30900   12.69900   15.34300
      C    C234   -15.51100   12.15600   14.17300
      O    O235   -14.59800   11.34800   14.35600
      C    C236   -15.97000   14.17700   15.52500
      O    O237   -14.56300   14.35200   15.54500
      N    N238   -15.84000   12.61200   12.96800
      C    C239   -15.11000   12.18100   11.78900
      C    C240   -13.64300   12.58400   11.90900
      O    O241   -12.75400   11.83000   11.50700
      C    C242   -15.73500   12.76100   10.53100
      N    N243   -13.39600   13.76500   12.47500
      C    C244   -12.04000   14.28900   12.59400
      C    C245   -11.23600   13.50200   13.62000
      O    O246   -10.06200   13.18400   13.40100
      C    C247   -12.06200   15.77300   12.97900
      C    C248   -13.00300   16.63300   12.13800
      C    C249   -14.41700   16.70200   12.70700
      O    O250   -15.35600   16.18900   12.05600
      O    O251   -14.59000   17.28000   13.80500
      N    N252   -11.87200   13.20000   14.74800
      C    C253   -11.22500   12.44000   15.81100
      C    C254   -10.93400   11.01600   15.35600
      O    O255    -9.90200   10.43500   15.70600
      C    C256   -12.09900   12.43700   17.06900
      C    C257   -12.28700   13.82100   17.68600
      C    C258   -13.22200   13.81100   18.87700
      O    O259   -14.30700   13.20100   18.77500
      O    O260   -12.86800   14.40800   19.91600
      N    N261   -11.84700   10.46200   14.56100
      C    C262   -11.67900    9.12300   14.01900
      C    C263   -10.48900    9.07100   13.06400
      O    O264    -9.65100    8.17300   13.15300
      C    C265   -12.95200    8.66500   13.28700
      O    O266   -13.99300    8.46500   14.24700
      C    C267   -12.70900    7.36700   12.55700
      N    N268   -10.41200   10.03800   12.15700
      C    C269    -9.28700   10.11500   11.23200
      C    C270    -7.96400   10.22400   11.99700
      O    O271    -6.97600    9.58100   11.63900
      C    C272    -9.44800   11.29300   10.27500
      N    N273    -7.94600   11.04100   13.04400
      C    C274    -6.75000   11.14800   13.88500
      C    C275    -6.45900    9.80600   14.55000
      O    O276    -5.31300    9.37000   14.61300
      C    C277    -6.92600   12.23400   14.93100
      N    N278    -7.50400    9.13900   15.03300
      C    C279    -7.31300    7.88900   15.76200
      C    C280    -6.72200    6.79300   14.87700
      O    O281    -5.86300    6.02500   15.30800
      C    C282    -8.62200    7.42200   16.39300
      N    N283    -7.17600    6.73000   13.63500
      C    C284    -6.81700    5.62400   12.76100
      C    C285    -5.76400    5.97900   11.70700
      O    O286    -5.44200    5.15800   10.85100
      C    C287    -8.05900    5.07200   12.05800
      C    C288    -9.14300    4.74100   13.08700
      C    C289    -8.56600    6.06700   11.04100
      N    N290    -5.24100    7.19900   11.76300
      C    C291    -4.22300    7.63100   10.82200
      C    C292    -4.71800    7.74800    9.39000
      O    O293    -4.11200    7.18700    8.47400
      N    N294    -5.82500    8.46600    9.19700
      C    C295    -6.35800    8.75000    7.86200
      C    C296    -6.65000   10.23200    7.72400
      O    O297    -6.32600   11.02200    8.60800
      C    C298    -7.65800    7.97600    7.60800
      O    O299    -7.40600    6.63400    7.23300
      N    N300    -7.27000   10.60900    6.61100
      C    C301    -7.82100   11.94300    6.48100
      C    C302    -9.30100   11.87500    6.80800
      O    O303    -9.89700   10.80000    6.78600
      C    C304    -7.65000   12.49900    5.05600
      O    O305    -8.13400   11.54600    4.10500
      C    C306    -6.18400   12.79300    4.76600
      N    N307    -9.89500   13.02000    7.11100
      C    C308   -11.32700   13.07900    7.35500
      C    C309   -12.08100   12.67400    6.08500
      O    O310   -13.08800   11.96500    6.13800
      C    C311   -11.74400   14.49100    7.78100
      O    O312   -10.96300   14.89300    8.91100
      C    C313   -13.21200   14.52600    8.15100
      N    N314   -11.57300   13.12100    4.94100
      C    C315   -12.12900   12.74200    3.65300
      C    C316   -12.13100   11.24000    3.45400
      O    O317   -13.11600   10.67900    2.98700
      N    N318   -11.03200   10.57900    3.81000
      C    C319   -10.96500    9.12800    3.68300
      C    C320   -11.97500    8.45300    4.62600
      O    O321   -12.60200    7.46400    4.26800
      C    C322    -9.55000    8.62900    3.95800
      N    N323   -12.13600    8.99900    5.82400
      C    C324   -13.09600    8.44200    6.78100
      C    C325   -14.52300    8.59100    6.23600
      O    O326   -15.30500    7.65300    6.28300
      C    C327   -12.95600    9.09200    8.17400
      C    C328   -14.16800    8.75700    9.05000
      C    C329   -11.65800    8.63100    8.86000
      N    N330   -14.84900    9.75700    5.68200
      C    C331   -16.15900    9.94400    5.06100
      C    C332   -16.42700    8.94700    3.92600
      O    O333   -17.51100    8.38400    3.83300
      C    C334   -16.31900   11.37000    4.53200
      C    C335   -16.58500   12.42600    5.59000
      C    C336   -16.84000   13.79000    4.91700
      N    N337   -16.27100   14.88800    5.69000
      C    C338   -15.20700   15.59300    5.32100
      N    N339   -14.59700   15.33500    4.17200
      N    N340   -14.75800   16.56800    6.09900
      N    N341   -15.44300    8.73900    3.05600
      C    C342   -15.59400    7.77800    1.96000
      C    C343   -15.78800    6.35600    2.45300
      O    O344   -16.65900    5.63500    1.96800
      C    C345   -14.36800    7.80200    1.02900
      C    C346   -14.46400    6.69200   -0.00500
      C    C347   -14.26100    9.15000    0.36200
      N    N348   -14.96500    5.95400    3.42000
      C    C349   -15.09900    4.64100    4.03900
      C    C350   -16.47400    4.45400    4.68500
      O    O351   -17.02400    3.35800    4.66900
      C    C352   -13.99300    4.44900    5.09400
      N    N353   -17.00200    5.51500    5.29500
      C    C354   -18.34000    5.46700    5.90800
      C    C355   -19.37300    5.16500    4.84300
      O    O356   -20.19400    4.26700    4.99700
      C    C357   -18.68300    6.81200    6.56300
      C    C358   -17.94400    7.04600    7.86500
      C    C359   -18.22600    8.42000    8.45300
      O    O360   -18.88200    9.26400    7.83400
      N    N361   -17.73900    8.64400    9.65000
      N    N362   -19.30000    5.91300    3.75000
      C    C363   -20.21200    5.71500    2.62200
      C    C364   -20.13400    4.28800    2.08900
      O    O365   -21.16100    3.63200    1.89800
      C    C366   -19.92500    6.72200    1.50500
      C    C367   -20.42000    8.10300    1.79900
      N    N368   -21.75600    8.39000    1.98600
      C    C369   -19.76100    9.28000    1.92400
      C    C370   -21.89800    9.68300    2.22200
      N    N371   -20.70200   10.24600    2.19000
      N    N372   -18.92000    3.79700    1.85400
      C    C373   -18.75500    2.44000    1.33500
      C    C374   -19.31100    1.40700    2.31900
      O    O375   -19.94300    0.42500    1.92000
      C    C376   -17.28500    2.15100    1.04600
      C    C377   -16.71700    3.05500   -0.05100
      C    C378   -15.47400    2.48600   -0.68500
      N    N379   -14.85600    3.43400   -1.61600
      C    C380   -15.43500    3.89800   -2.72300
      N    N381   -16.66200    3.51600   -3.05300
      N    N382   -14.78300    4.75400   -3.50100
      N    N383   -19.06800    1.63200    3.60500
      C    C384   -19.56000    0.71400    4.63600
      C    C385   -21.08000    0.65000    4.70800
      O    O386   -21.65900   -0.43000    4.76200
      C    C387   -18.99100    1.07900    6.00400
      N    N388   -21.73700    1.80200    4.75000
      C    C389   -23.19100    1.79200    4.88800
      C    C390   -23.84900    1.12800    3.68200
      O    O391   -24.88700    0.46900    3.81000
      C    C392   -23.73500    3.20100    5.08800
      C    C393   -23.27000    3.90100    6.36300
      C    C394   -24.20800    5.03300    6.70000
      C    C395   -23.19000    2.92100    7.51700
      N    N396   -23.23800    1.29800    2.51500
      C    C397   -23.77300    0.70000    1.30200
      C    C398   -23.68100   -0.82800    1.34200
      O    O399   -24.63900   -1.51500    0.97400
      C    C400   -23.07500    1.25400    0.05500
      C    C401   -23.65700    0.73300   -1.24900
      C    C402   -25.12400    1.09300   -1.40400
      O    O403   -26.00000    0.22400   -1.38200
      N    N404   -25.39900    2.38200   -1.55100
      N    N405   -22.53900   -1.35700    1.78000
      C    C406   -22.37100   -2.80400    1.92200
      C    C407   -23.34100   -3.33500    2.97300
      O    O408   -23.98400   -4.36200    2.77400
      C    C409   -20.93100   -3.17400    2.32800
      C    C410   -19.88000   -3.02900    1.24100
      C    C411   -18.47900   -3.23100    1.84500
      N    N412   -17.67700   -4.24800    1.16000
      C    C413   -17.93700   -5.55500    1.16900
      N    N414   -19.00000   -6.02800    1.80900
      N    N415   -17.13900   -6.39400    0.51900
      N    N416   -23.45300   -2.62600    4.09100
      C    C417   -24.38200   -3.03500    5.13300
      C    C418   -25.81000   -3.00500    4.62200
      O    O419   -26.57100   -3.94200    4.85100
      C    C420   -24.26300   -2.13300    6.35800
      C    C421   -22.89300   -2.25600    7.03600
      C    C422   -22.79000   -1.24000    8.13900
      C    C423   -22.72600   -3.66900    7.57900
      N    N424   -26.18400   -1.91600    3.96000
      C    C425   -27.54900   -1.80300    3.47100
      C    C426   -27.83500   -2.98400    2.54500
      O    O427   -28.87800   -3.61700    2.65700
      C    C428   -27.78100   -0.47900    2.74700
      C    C429   -29.22300   -0.27900    2.26100
      C    C430   -29.39000    1.08600    1.58100
      C    C431   -30.80100    1.26700    0.98900
      N    N432   -31.13400    0.17100    0.04600
      N    N433   -26.90100   -3.28200    1.64600
      C    C434   -27.03000   -4.44100    0.75300
      C    C435   -27.38200   -5.72000    1.51900
      O    O436   -28.35400   -6.41300    1.17400
      C    C437   -25.72800   -4.68200   -0.03700
      C    C438   -25.54900   -3.70300   -1.20100
      O    O439   -26.47300   -2.90700   -1.46600
      O    O440   -24.48900   -3.74500   -1.86200
      N    N441   -26.57500   -6.03500    2.53700
      C    C442   -26.74000   -7.25600    3.33300
      C    C443   -28.08700   -7.27900    4.02200
      O    O444   -28.80700   -8.27400    3.96400
      C    C445   -25.65000   -7.38200    4.40600
      C    C446   -24.27500   -7.67700    3.87400
      C    C447   -24.16400   -9.05900    3.23300
      O    O448   -24.87600   -9.99200    3.66600
      O    O449   -23.35000   -9.20700    2.29700
      N    N450   -28.42400   -6.17700    4.68000
      C    C451   -29.67700   -6.09600    5.42800
      C    C452   -30.88100   -6.27800    4.52200
      O    O453   -31.78900   -7.05800    4.82400
      C    C454   -29.80200   -4.76200    6.17600
      C    C455   -28.66900   -4.62200    7.18300
      C    C456   -31.15600   -4.67600    6.89100
      C    C457   -28.47100   -3.20900    7.68500
      N    N458   -30.88000   -5.56200    3.40100
      C    C459   -31.95900   -5.65800    2.42400
      C    C460   -32.10200   -7.07900    1.87200
      O    O461   -33.19500   -7.64100    1.85600
      C    C462   -31.74700   -4.69600    1.24600
      C    C463   -32.79900   -4.94200    0.18500
      C    C464   -31.79600   -3.25800    1.71600
      N    N465   -30.99800   -7.65500    1.41100
      C    C466   -31.01600   -9.02600    0.91200
      C    C467   -31.31100  -10.01900    2.03700
      O    O468   -30.88300   -9.82900    3.17900
      C    C469   -29.69900   -9.36200    0.23300
