# CIF file generated by openbabel 2.3.2, see http://openbabel.sf.net
data_I
_chemical_name_common '../proteins/pdb/4CGE.pdb'
_cell_length_a 34.543
_cell_length_b 84.004
_cell_length_c 72.628
_cell_angle_alpha 90
_cell_angle_beta 103.53
_cell_angle_gamma 90
_space_group_name_H-M_alt 'P 1 21 1'
_space_group_name_Hall 'P 2yb'
loop_
    _symmetry_equiv_pos_as_xyz
    'x,y,z'
    '-x,1/2+y,-z'
loop_
    _atom_site_type_symbol
    _atom_site_label
    _atom_site_Cartn_x
    _atom_site_Cartn_y
    _atom_site_Cartn_z
      N    N1   -17.98500  -23.47000    2.47600
      C    C2   -17.46900  -23.45400    3.83900
      C    C3   -16.77700  -22.12600    4.13700
      O    O4   -16.56200  -21.31500    3.23700
      C    C5   -16.48500  -24.61500    4.08300
      C    C6   -17.09700  -25.93000    3.62300
      C    C7   -15.17400  -24.35900    3.36300
      N    N8   -16.43800  -21.90600    5.40400
      C    C9   -15.78500  -20.67000    5.82400
      C    C10   -14.29500  -20.68700    5.49400
      O    O11   -13.47300  -21.06300    6.32700
      C    C12   -15.99000  -20.44700    7.32500
      C    C13   -15.68600  -19.02300    7.75900
      O    O14   -14.92000  -18.30800    7.11300
      N    N15   -16.28700  -18.60700    8.86700
      N    N16   -13.94900  -20.27200    4.27900
      C    C17   -12.56100  -20.32100    3.82500
      C    C18   -11.68000  -19.28400    4.51800
      O    O19   -10.50300  -19.53500    4.77800
      C    C20   -12.48600  -20.13100    2.30800
      C    C21   -13.06300  -21.27400    1.53200
      C    C22   -14.19100  -21.25900    0.76800
      C    C23   -12.53800  -22.60800    1.45700
      N    N24   -14.40000  -22.50000    0.21400
      C    C25   -13.40700  -23.34000    0.61800
      C    C26   -11.42900  -23.24600    2.00900
      C    C27   -13.18700  -24.68800    0.32700
      C    C28   -11.21700  -24.58200    1.71600
      C    C29   -12.09300  -25.28800    0.88300
      N    N30   -12.25400  -18.12100    4.81200
      C    C31   -11.52100  -17.04200    5.46700
      C    C32   -11.03900  -17.44500    6.85500
      O    O33    -9.92500  -17.10900    7.25700
      C    C34   -12.39200  -15.78800    5.56100
      C    C35   -12.50700  -15.06100    4.23800
      O    O36   -11.47800  -14.92300    3.54500
      O    O37   -13.62500  -14.62900    3.88600
      N    N38   -11.88400  -18.16600    7.58400
      C    C39   -11.52000  -18.64800    8.91000
      C    C40   -10.40900  -19.68900    8.81700
      O    O41    -9.50500  -19.72300    9.65100
      C    C42   -12.73600  -19.22600    9.61900
      N    N43   -10.48600  -20.53500    7.79400
      C    C44    -9.48100  -21.56800    7.56600
      C    C45    -8.13800  -20.94900    7.18300
      O    O46    -7.08000  -21.43700    7.58100
      C    C47    -9.92900  -22.55300    6.46200
      C    C48   -11.21900  -23.26600    6.87200
      C    C49    -8.84200  -23.57500    6.17000
      C    C50   -11.73200  -24.23900    5.83500
      N    N51    -8.18800  -19.86600    6.41500
      C    C52    -6.97500  -19.19500    5.96200
      C    C53    -6.24400  -18.51000    7.11300
      O    O54    -5.01500  -18.44800    7.12700
      C    C55    -7.30400  -18.18900    4.88100
      N    N56    -7.00500  -17.99200    8.07300
      C    C57    -6.42400  -17.32200    9.23300
      C    C58    -5.60000  -18.30000   10.06600
      O    O59    -4.54500  -17.95300   10.59700
      C    C60    -7.51900  -16.68500   10.09200
      C    C61    -7.01300  -16.05500   11.38100
      C    C62    -6.05700  -14.90600   11.13400
      O    O63    -6.17400  -14.18700   10.14200
      N    N64    -5.10100  -14.72800   12.03800
      N    N65    -6.09400  -19.52700   10.16600
      C    C66    -5.41500  -20.57500   10.91400
      C    C67    -4.16500  -21.06500   10.18800
      O    O68    -3.19200  -21.47800   10.81700
      C    C69    -6.37200  -21.74400   11.16400
      S    S70    -5.60800  -23.22400   11.85700
      N    N71    -4.19300  -21.00300    8.86100
      C    C72    -3.12700  -21.57000    8.04400
      C    C73    -1.97100  -20.60600    7.79200
      O    O74    -0.84000  -21.04100    7.57700
      C    C75    -3.69200  -22.04800    6.70300
      C    C76    -4.51900  -23.32400    6.78100
      C    C77    -3.67100  -24.56300    7.00200
      O    O78    -2.43700  -24.48400    6.81900
      O    O79    -4.24100  -25.61800    7.35800
      N    N80    -2.24600  -19.30500    7.81100
      C    C81    -1.21700  -18.32600    7.46600
      C    C82    -1.45000  -16.94100    8.06600
      O    O83    -0.83900  -15.96300    7.63500
      C    C84    -1.10900  -18.20200    5.94600
      O    O85    -2.34400  -17.79500    5.38600
      N    N86    -2.33300  -16.85400    9.05400
      C    C87    -2.60300  -15.58700    9.70900
      C    C88    -3.38500  -14.61000    8.85000
      O    O89    -3.55500  -13.44700    9.21900
      N    N90    -3.85900  -15.07800    7.70000
      C    C91    -4.68000  -14.25800    6.82900
      C    C92    -3.96700  -13.71700    5.60300
      O    O93    -4.59600  -13.12200    4.72800
      N    N94    -2.65400  -13.91800    5.53500
      C    C95    -1.87400  -13.42500    4.40400
      C    C96    -2.08500  -14.29000    3.16400
      O    O97    -1.51000  -15.37100    3.04100
      C    C98    -0.38700  -13.36600    4.76200
      C    C99     0.40800  -12.48000    3.81800
      O    O100     0.11100  -12.39100    2.62700
      N    N101     1.42500  -11.81600    4.35200
      N    N102    -2.91000  -13.79800    2.24400
      C    C103    -3.26800  -14.54600    1.04300
      C    C104    -2.16000  -14.54300   -0.00800
      O    O105    -2.18900  -15.33300   -0.95100
      C    C106    -4.55400  -13.98100    0.43300
      C    C107    -5.77700  -14.22200    1.26300
      C    C108    -6.32200  -13.37800    2.18700
      C    C109    -6.61300  -15.38500    1.24300
      N    N110    -7.44300  -13.94500    2.74500
      C    C111    -7.64200  -15.17800    2.18100
      C    C112    -6.58700  -16.58400    0.52100
      C    C113    -8.64000  -16.12300    2.41600
      C    C114    -7.57700  -17.52100    0.75800
      C    C115    -8.58900  -17.28600    1.69700
      N    N116    -1.18600  -13.65300    0.15300
      C    C117    -0.11800  -13.51500   -0.83100
      C    C118     1.23100  -13.97700   -0.28800
      O    O119     2.28000  -13.56200   -0.78000
      C    C120    -0.01500  -12.06200   -1.30200
      O    O121     0.31600  -11.19900   -0.22800
      N    N122     1.20300  -14.84600    0.71700
      C    C123     2.42900  -15.27600    1.37900
      C    C124     3.18500  -16.33900    0.57600
      O    O125     2.59000  -17.25300    0.00300
      C    C126     2.13700  -15.81200    2.80500
      C    C127     3.44200  -16.06800    3.56300
      C    C128     1.26600  -17.06200    2.76000
      C    C129     4.34000  -14.85200    3.65600
      N    N130     4.50500  -16.18800    0.52300
      C    C131     5.38000  -17.15900   -0.12100
      C    C132     6.68000  -17.28900    0.66700
      O    O133     7.71000  -16.73900    0.28000
      C    C134     5.66600  -16.75700   -1.57100
      C    C135     6.49200  -17.79300   -2.31800
      O    O136     6.68300  -18.91300   -1.84400
      N    N137     6.98100  -17.42200   -3.49600
      N    N138     6.62000  -18.02000    1.77600
      C    C139     7.77100  -18.17800    2.65900
      C    C140     8.81900  -19.12800    2.08400
      O    O141     9.88000  -19.32300    2.67600
      C    C142     7.34300  -18.69100    4.04800
      O    O143     6.54300  -19.87100    3.89800
      C    C144     6.53700  -17.63100    4.78100
      N    N145     8.51400  -19.72100    0.93400
      C    C146     9.44400  -20.61300    0.26800
      C    C147     9.57100  -21.96100    0.95000
      O    O148    10.50700  -22.71300    0.68000
      N    N149     8.62800  -22.27100    1.83300
      C    C150     8.65200  -23.53600    2.55700
      C    C151     7.90000  -24.63500    1.81300
      O    O152     7.61400  -25.69100    2.37600
      C    C153     8.06700  -23.35900    3.96000
      C    C154     6.58500  -23.03500    3.93900
      O    O155     6.07800  -22.45300    2.98000
      N    N156     5.88300  -23.40900    5.00300
      N    N157     7.57900  -24.37800    0.54900
      C    C158     6.90500  -25.35900   -0.28200
      C    C159     5.42200  -25.09000   -0.44800
      O    O160     4.78800  -25.61700   -1.36300
      N    N161     4.86800  -24.26800    0.43700
      C    C162     3.44500  -23.95000    0.40300
      C    C163     3.21800  -22.49500   -0.00800
      O    O164     4.00200  -21.61200    0.34200
      C    C165     2.80800  -24.23100    1.76500
      C    C166     3.12000  -25.61200    2.29800
      C    C167     2.37900  -26.71600    1.89400
      C    C168     4.16100  -25.81400    3.19900
      C    C169     2.66100  -27.98200    2.37500
      C    C170     4.45200  -27.07600    3.68600
      C    C171     3.69800  -28.15600    3.27000
      O    O172     3.98200  -29.41500    3.75100
      N    N173     2.14500  -22.25200   -0.75600
      C    C174     1.87600  -20.92400   -1.30000
      C    C175     0.46000  -20.45200   -0.98300
      O    O176    -0.45100  -21.26100   -0.81700
      C    C177     2.09200  -20.91800   -2.81700
      C    C178     3.44100  -21.45100   -3.25200
      C    C179     3.63600  -22.80900   -3.46500
      C    C180     4.51600  -20.59600   -3.45400
      C    C181     4.86400  -23.30200   -3.86000
      C    C182     5.74900  -21.08000   -3.85200
      C    C183     5.91700  -22.43400   -4.05200
      O    O184     7.14100  -22.92200   -4.44700
      N    N185     0.28200  -19.13600   -0.90100
      C    C186    -1.03200  -18.55300   -0.69600
      C    C187    -1.55300  -18.68900    0.72100
      O    O188    -0.95600  -19.37300    1.55200
      N    N189    -2.68000  -18.03900    0.99100
      C    C190    -3.27000  -18.04200    2.31700
      C    C191    -3.75500  -19.40300    2.78200
      O    O192    -3.83500  -19.66100    3.98300
      N    N193    -4.08400  -20.27300    1.83400
      C    C194    -4.56900  -21.60900    2.16500
      C    C195    -3.44500  -22.63800    2.11700
      O    O196    -3.68400  -23.83700    2.26900
      C    C197    -5.70200  -22.01400    1.22100
      C    C198    -7.02700  -21.29300    1.47300
      C    C199    -8.03400  -21.60100    0.38000
      C    C200    -7.58400  -21.67200    2.83700
      N    N201    -2.22400  -22.15200    1.90600
      C    C202    -1.02300  -22.98300    1.92200
      C    C203    -1.10600  -24.15600    0.94500
      O    O204    -1.15000  -25.31500    1.35700
      C    C205    -0.75900  -23.50200    3.33800
      C    C206    -0.82700  -22.42800    4.41300
      C    C207     0.16600  -21.31200    4.14100
      N    N208     1.54600  -21.78000    4.22200
      C    C209     2.56300  -21.21200    3.58300
      N    N210     2.35400  -20.15900    2.80500
      N    N211     3.78700  -21.69900    3.71300
      N    N212    -1.12500  -23.84600   -0.34700
      C    C213    -1.18700  -24.87400   -1.38000
      C    C214     0.20100  -25.33400   -1.81900
      O    O215     1.13400  -24.53600   -1.89900
      C    C216    -1.95700  -24.36500   -2.60400
      C    C217    -3.44500  -24.30300   -2.41000
      C    C218    -4.19200  -25.46500   -2.31000
      C    C219    -4.09900  -23.08400   -2.35200
      C    C220    -5.56200  -25.41400   -2.13900
      C    C221    -5.47000  -23.02500   -2.18200
      C    C222    -6.20300  -24.19200   -2.07500
      N    N223     0.32900  -26.62600   -2.10200
      C    C224     1.50900  -27.13600   -2.78500
      C    C225     1.33000  -26.86200   -4.27300
      O    O226     0.20300  -26.69300   -4.74000
      C    C227     1.72300  -28.64200   -2.54300
      O    O228     0.56700  -29.36900   -2.97900
      C    C229     1.96200  -28.91900   -1.06500
      N    N230     2.43200  -26.80800   -5.01400
      C    C231     2.36900  -26.51000   -6.44200
      C    C232     1.57700  -27.57600   -7.19400
      O    O233     0.86800  -27.27500   -8.15500
      C    C234     3.76800  -26.38100   -7.02000
      N    N235     1.69700  -28.82000   -6.74300
      C    C236     0.98000  -29.92600   -7.34700
      C    C237    -0.52100  -29.82500   -7.15300
      O    O238    -1.28000  -29.86600   -8.12000
      N    N239    -0.94700  -29.68800   -5.90000
      C    C240    -2.36700  -29.60500   -5.56700
      C    C241    -3.02400  -28.39000   -6.21500
      O    O242    -4.19400  -28.43200   -6.59900
      C    C243    -2.58500  -29.54000   -4.03700
      O    O244    -1.93200  -30.64900   -3.40700
      C    C245    -4.07000  -29.57800   -3.69700
      N    N246    -2.25900  -27.31100   -6.34500
      C    C247    -2.77400  -26.06500   -6.90100
      C    C248    -3.24100  -26.21900   -8.34700
      O    O249    -4.41600  -26.01800   -8.65100
      C    C250    -1.71300  -24.96900   -6.81300
      C    C251    -2.13200  -23.68800   -7.45600
      C    C252    -1.64500  -23.15300   -8.61300
      C    C253    -3.13700  -22.78200   -6.98600
      N    N254    -2.28000  -21.96500   -8.88800
      C    C255    -3.20000  -21.71600   -7.90500
      C    C256    -3.98600  -22.76800   -5.87500
      C    C257    -4.07900  -20.64800   -7.74600
      C    C258    -4.85800  -21.70400   -5.72000
      C    C259    -4.89800  -20.66000   -6.65000
      N    N260    -2.31800  -26.57900   -9.23300
      C    C261    -2.62500  -26.70300  -10.65400
      C    C262    -3.55300  -27.87800  -10.95000
      O    O263    -4.49200  -27.74800  -11.73500
      C    C264    -1.33600  -26.84200  -11.46600
      C    C265    -1.54500  -27.36500  -12.87800
      C    C266    -0.67500  -26.63000  -13.88400
      N    N267     0.71900  -26.55400  -13.45900
      C    C268     1.67800  -25.95500  -14.15700
      N    N269     1.39400  -25.38100  -15.31900
      N    N270     2.92100  -25.93000  -13.69600
      N    N271    -3.29800  -29.01500  -10.30700
      C    C272    -4.07400  -30.23200  -10.54700
      C    C273    -5.55700  -30.05300  -10.22300
      O    O274    -6.38600  -30.87900  -10.60600
      C    C275    -3.50100  -31.39100   -9.74700
      N    N276    -5.88500  -28.97800   -9.51300
      C    C277    -7.27300  -28.65200   -9.21600
      C    C278    -7.72000  -27.37700   -9.92600
      O    O279    -8.68100  -26.72900   -9.51200
      C    C280    -7.47800  -28.51600   -7.70600
      C    C281    -7.31300  -29.83800   -6.97300
      O    O282    -8.24100  -30.64500   -6.91000
      N    N283    -6.12800  -30.06300   -6.41600
      N    N284    -7.01200  -27.02300  -10.99500
      C    C285    -7.38900  -25.89500  -11.82900
      C    C286    -6.74500  -24.57900  -11.43900
      O    O287    -7.42100  -23.55600  -11.34000
      N    N288    -5.43400  -24.59900  -11.22900
      C    C289    -4.71700  -23.40300  -10.82800
      C    C290    -3.74200  -22.91100  -11.88000
      O    O291    -3.11200  -23.70800  -12.57400
      N    N292    -3.61500  -21.59300  -11.99500
      C    C293    -2.68300  -20.99600  -12.94300
      C    C294    -1.51200  -20.33600  -12.22300
      O    O295    -1.70400  -19.57200  -11.27700
      C    C296    -3.39800  -19.97400  -13.83100
      O    O297    -3.73700  -18.80700  -13.09900
      N    N298    -0.30200  -20.63700  -12.68100
      C    C299     0.90200  -20.07300  -12.10100
      C    C300     1.09400  -20.46400  -10.65000
      O    O301     1.09200  -21.64700  -10.30900
      N    N302     1.25900  -19.46100   -9.79400
      C    C303     1.45600  -19.68700   -8.36700
      C    C304     0.27300  -19.16400   -7.55700
      O    O305    -0.38900  -18.20600   -7.95500
      C    C306     2.75000  -19.02300   -7.89500
      O    O307     2.91500  -19.16400   -6.49400
      N    N308     0.01600  -19.79800   -6.41800
      C    C309    -1.10400  -19.41700   -5.56500
      C    C310    -0.80500  -18.13500   -4.79400
      O    O311    -1.70600  -17.51400   -4.23100
      C    C312    -1.44300  -20.54600   -4.60300
      N    N313     0.46500  -17.74500   -4.77200
      C    C314     0.88100  -16.53100   -4.08000
      C    C315     0.49200  -15.29000   -4.87800
      O    O316     0.26400  -14.22100   -4.31200
      C    C317     2.38100  -16.55200   -3.82500
      N    N318     0.41800  -15.44200   -6.19600
      C    C319     0.04900  -14.34100   -7.07700
      C    C320    -1.43800  -14.36100   -7.41300
      O    O321    -2.00600  -13.35000   -7.82700
      C    C322     0.87700  -14.38900   -8.36000
      C    C323     2.36600  -14.32600   -8.09100
      O    O324     3.09300  -15.28900   -8.33300
      N    N325     2.82800  -13.18900   -7.58600
      N    N326    -2.06300  -15.51900   -7.22900
      C    C327    -3.48900  -15.66700   -7.48800
      C    C328    -4.30700  -14.87700   -6.47500
      O    O329    -3.92700  -14.76600   -5.31000
      C    C330    -3.88300  -17.13200   -7.45900
      N    N331    -5.43000  -14.32800   -6.92400
      C    C332    -6.30200  -13.55700   -6.04900
      C    C333    -6.94600  -14.45400   -4.99800
      O    O334    -6.90100  -15.68000   -5.10500
      C    C335    -7.38000  -12.83800   -6.86300
      O    O336    -8.21900  -13.76300   -7.53000
      N    N337    -7.54000  -13.83500   -3.98200
      C    C338    -8.21200  -14.57000   -2.91700
      C    C339    -9.33100  -15.45000   -3.46400
      O    O340    -9.40600  -16.63600   -3.15000
      C    C341    -8.77000  -13.60400   -1.87100
      C    C342    -9.75700  -14.23600   -0.90200
      C    C343   -10.30800  -13.20300    0.06600
      N    N344   -11.41100  -13.72800    0.86400
      C    C345   -12.69000  -13.64000    0.51400
      N    N346   -13.02700  -13.04600   -0.62400
      N    N347   -13.63000  -14.14400    1.30100
      N    N348   -10.19200  -14.86000   -4.28700
      C    C349   -11.31400  -15.58300   -4.87800
      C    C350   -10.83000  -16.74000   -5.74600
      O    O351   -11.43000  -17.81400   -5.75700
      C    C352   -12.18800  -14.63000   -5.70100
      C    C353   -13.44300  -15.26300   -6.29200
      C    C354   -13.20600  -15.91300   -7.64600
      O    O355   -12.20900  -15.56500   -8.31400
      O    O356   -14.01800  -16.77700   -8.04000
      N    N357    -9.74000  -16.51300   -6.47000
      C    C358    -9.18200  -17.52800   -7.35200
      C    C359    -8.57100  -18.66600   -6.53700
      O    O360    -8.58600  -19.82100   -6.96000
      C    C361    -8.13900  -16.90700   -8.28300
      C    C362    -8.08800  -17.52300   -9.67100
      C    C363    -7.03400  -18.60100   -9.79000
      O    O364    -6.43200  -18.95600   -8.75700
      O    O365    -6.80300  -19.08900  -10.91700
      N    N366    -8.03900  -18.33400   -5.36400
      C    C367    -7.52600  -19.34800   -4.45000
      C    C368    -8.67800  -20.13300   -3.83800
      O    O369    -8.59400  -21.34900   -3.66500
      C    C370    -6.67800  -18.71300   -3.34700
      C    C371    -5.35000  -18.15700   -3.82200
      C    C372    -4.47700  -17.68300   -2.67800
      O    O373    -4.42800  -18.30700   -1.61800
      N    N374    -3.78300  -16.56900   -2.88600
      N    N375    -9.75200  -19.42200   -3.51200
      C    C376   -10.94400  -20.03600   -2.94400
      C    C377   -11.60300  -20.96600   -3.96000
      O    O378   -12.13400  -22.01800   -3.60200
      C    C379   -11.94900  -18.95900   -2.47000
      C    C380   -11.38800  -18.21200   -1.25700
      C    C381   -13.29500  -19.57500   -2.12700
      C    C382   -12.29500  -17.12400   -0.72900
      N    N383   -11.54400  -20.58400   -5.23200
      C    C384   -12.12400  -21.38800   -6.30300
      C    C385   -11.40200  -22.72400   -6.45300
      O    O386   -12.03200  -23.75900   -6.66500
      C    C387   -12.08500  -20.62700   -7.63000
      C    C388   -12.96500  -21.23000   -8.71300
      C    C389   -12.59100  -20.71400  -10.09300
      N    N390   -11.65800  -21.60700  -10.77600
      C    C391   -10.33500  -21.48700  -10.73500
      N    N392    -9.77400  -20.50500  -10.04200
      N    N393    -9.57100  -22.35000  -11.39100
      N    N394   -10.07700  -22.69100   -6.35000
      C    C395    -9.26600  -23.90000   -6.45400
      C    C396    -9.46100  -24.77000   -5.21400
      O    O397    -9.41700  -25.99900   -5.28700
      C    C398    -7.76900  -23.55900   -6.63700
      C    C399    -6.92100  -24.82300   -6.67800
      C    C400    -7.56600  -22.74500   -7.90600
      N    N401    -9.69900  -24.12100   -4.07900
      C    C402    -9.93800  -24.82700   -2.82600
      C    C403   -11.23600  -25.62100   -2.88800
      O    O404   -11.36500  -26.67100   -2.25900
      C    C405    -9.97200  -23.84800   -1.66600
      N    N406   -12.19900  -25.10600   -3.64600
      C    C407   -13.47300  -25.78800   -3.83100
      C    C408   -13.28200  -27.09200   -4.59900
      O    O409   -14.01700  -28.05600   -4.39200
      C    C410   -14.46900  -24.88100   -4.55900
      C    C411   -14.92000  -23.66800   -3.75400
      C    C412   -15.90000  -24.02300   -2.65000
      O    O413   -16.35300  -25.18600   -2.60200
      O    O414   -16.22200  -23.13500   -1.83200
      N    N415   -12.28800  -27.11500   -5.48200
      C    C416   -11.95600  -28.32100   -6.22900
      C    C417   -11.22200  -29.32300   -5.34500
      O    O418   -11.44600  -30.53000   -5.43600
      C    C419   -11.10900  -27.97900   -7.45600
      C    C420   -11.80700  -27.01200   -8.39500
      O    O421   -13.02900  -26.86800   -8.36400
      N    N422   -11.02900  -26.34600   -9.23900
      N    N423   -10.34600  -28.80700   -4.48800
      C    C424    -9.61300  -29.62900   -3.53300
      C    C425   -10.57200  -30.27600   -2.53800
      O    O426   -10.42300  -31.44500   -2.18000
      C    C427    -8.56600  -28.79600   -2.76600
      C    C428    -7.87200  -29.64100   -1.71100
      C    C429    -7.55200  -28.20000   -3.73100
      N    N430   -11.56400  -29.50500   -2.10600
      C    C431   -12.54900  -29.96800   -1.13500
      C    C432   -13.43600  -31.07400   -1.70900
      O    O433   -14.01700  -31.86800   -0.96800
      C    C434   -13.40700  -28.78900   -0.66100
      C    C435   -14.52100  -29.05100    0.35300
      C    C436   -13.95800  -29.64700    1.63300
      C    C437   -15.28700  -27.77000    0.64300
      N    N438   -13.52000  -31.13000   -3.03300
      C    C439   -14.41200  -32.06400   -3.70900
      C    C440   -13.68400  -33.33800   -4.14100
      O    O441   -14.31300  -34.36000   -4.41700
      C    C442   -15.05600  -31.37700   -4.91700
      C    C443   -16.22500  -32.12100   -5.53800
      C    C444   -16.87500  -31.27300   -6.62100
      N    N445   -15.88100  -30.69300   -7.52100
      C    C446   -16.11600  -29.67100   -8.33800
      N    N447   -17.31600  -29.10600   -8.36900
      N    N448   -15.15000  -29.20800   -9.12000
      N    N449   -12.35600  -33.27800   -4.18900
      C    C450   -11.55800  -34.42500   -4.61200
      C    C451   -10.84300  -35.08700   -3.43800
      O    O452   -10.67300  -36.30600   -3.41100
      C    C453   -10.53800  -34.00500   -5.67200
      O    O454    -9.68600  -32.98300   -5.18400
      N    N455   -10.42700  -34.28100   -2.46700
      C    C456    -9.70200  -34.79500   -1.31100
      C    C457   -10.54800  -34.72900   -0.04700
      O    O458   -10.47900  -35.61400    0.80500
      C    C459    -8.40100  -34.01800   -1.10900
      C    C460    -7.45400  -34.07200   -2.29300
      C    C461    -6.16100  -33.32700   -2.03700
      O    O462    -5.83300  -33.00000   -0.89600
      N    N463    -5.41800  -33.05000   -3.10100
      N    N464   -11.34500  -33.67200    0.06600
      C    C465   -12.16800  -33.45800    1.24100
      C    C466   -11.59000  -32.38900    2.14800
      O    O467   -10.60100  -31.74100    1.80500
      N    N468   -12.20500  -32.20900    3.31200
      C    C469   -11.74400  -31.21200    4.27200
      C    C470   -10.50500  -31.72000    5.01000
      O    O471    -9.87600  -30.98500    5.77100
      C    C472   -12.85100  -30.85400    5.28600
      C    C473   -12.60200  -29.47200    5.89800
      C    C474   -12.96600  -31.92900    6.36000
      C    C475   -12.57900  -28.34800    4.88500
      N    N476   -10.14800  -32.97700    4.76200
      C    C477    -8.97000  -33.58400    5.37400
      C    C478    -7.67300  -32.99000    4.82800
      O    O479    -6.58700  -33.30400    5.31400
      C    C480    -8.96900  -35.09800    5.15100
      C    C481    -8.85200  -35.50000    3.69000
      C    C482    -8.44700  -36.95900    3.54000
      N    N483    -8.35200  -37.34800    2.13600
      C    C484    -7.25200  -37.22500    1.39900
      N    N485    -6.14700  -36.72500    1.93400
      N    N486    -7.25800  -37.60200    0.12800
      N    N487    -7.79000  -32.14300    3.80900
      C    C488    -6.63000  -31.48000    3.22400
      C    C489    -6.09600  -30.41000    4.16700
      O    O490    -4.94100  -29.99500    4.06600
      C    C491    -6.98500  -30.87600    1.87700
      N    N492    -6.95000  -29.96800    5.08400
      C    C493    -6.55400  -29.03400    6.12900
      C    C494    -6.86200  -29.64700    7.49300
      O    O495    -7.87200  -29.31300    8.11400
      C    C496    -7.27100  -27.69400    5.95700
      C    C497    -7.04700  -27.06800    4.61200
      C    C498    -6.05500  -26.19700    4.26700
      C    C499    -7.83100  -27.27200    3.42900
      N    N500    -6.17400  -25.84400    2.94300
      C    C501    -7.25600  -26.49000    2.40700
      C    C502    -8.96400  -28.03700    3.13700
      C    C503    -7.77600  -26.45300    1.11500
      C    C504    -9.47700  -28.00000    1.85200
      C    C505    -8.88400  -27.21300    0.85800
      N    N506    -5.98000  -30.54900    7.95900
      C    C507    -6.16400  -31.41900    9.13000
      C    C508    -6.61400  -30.69700   10.39900
      O    O509    -7.39400  -31.25600   11.17000
      C    C510    -4.77100  -32.02400    9.33300
      C    C511    -4.15000  -31.99100    7.98700
      C    C512    -4.65300  -30.73200    7.34600
      N    N513    -6.13100  -29.47800   10.61000
      C    C514    -6.40700  -28.75700   11.84800
      C    C515    -7.24200  -27.49700   11.61300
      O    O516    -8.09800  -27.14900   12.42800
      C    C517    -5.09300  -28.37800   12.56500
      C    C518    -5.37600  -27.61600   13.84900
      C    C519    -4.28100  -29.62800   12.85800
      N    N520    -7.00400  -26.82600   10.49100
      C    C521    -7.67800  -25.56400   10.20100
      C    C522    -8.99900  -25.75900    9.46300
      O    O523    -9.81100  -24.83800    9.37700
      C    C524    -6.76200  -24.65400    9.38600
      S    S525    -5.18400  -24.29700   10.18400
      N    N526    -9.21200  -26.96000    8.93300
      C    C527   -10.42600  -27.26200    8.19600
      C    C528   -11.65700  -27.31600    9.07900
      O    O529   -12.78400  -27.28500    8.58400
      N    N530   -11.43900  -27.40000   10.38800
      C    C531   -12.52800  -27.43400   11.35800
      C    C532   -13.41300  -26.19600   11.25300
      O    O533   -13.03000  -25.10900   11.68600
      C    C534   -11.97300  -27.54700   12.77600
      C    C535   -10.95900  -28.65200   12.96300
      C    C536   -10.33900  -28.57400   14.34600
      N    N537    -9.29100  -29.57200   14.52700
      C    C538    -8.45500  -29.59700   15.56100
      N    N539    -8.54200  -28.67300   16.50900
      N    N540    -7.53000  -30.54300   15.64500
