# CIF file generated by openbabel 2.3.2, see http://openbabel.sf.net
data_I
_chemical_name_common '../proteins/pdb/4E1P.pdb'
_cell_length_a 32.51
_cell_length_b 27.03
_cell_length_c 56.83
_cell_angle_alpha 90
_cell_angle_beta 94.31
_cell_angle_gamma 90
_space_group_name_H-M_alt 'P 1 21 1'
_space_group_name_Hall 'P 2yb'
loop_
    _symmetry_equiv_pos_as_xyz
    'x,y,z'
    '-x,1/2+y,-z'
loop_
    _atom_site_type_symbol
    _atom_site_label
    _atom_site_Cartn_x
    _atom_site_Cartn_y
    _atom_site_Cartn_z
      N    N1     6.05100    7.08500   53.68100
      C    C2     6.97500    6.18300   52.99900
      C    C3     7.39300    6.78200   51.66600
      O    O4     6.65200    7.56400   51.06300
      C    C5     6.32800    4.81700   52.78000
      N    N6     8.59100    6.42400   51.21700
      C    C7     9.03800    6.78300   49.87900
      C    C8     8.46500    5.77000   48.89200
      O    O9     8.82000    4.58400   48.91200
      C    C10    10.57700    6.83400   49.79800
      C    C11    11.03300    7.03900   48.35500
      C    C12    11.10900    7.94700   50.69300
      N    N13     7.54700    6.23900   48.05000
      C    C14     6.84800    5.38000   47.10800
      C    C15     7.38900    5.59600   45.70300
      O    O16     7.49300    6.72500   45.23200
      C    C17     5.33100    5.64200   47.13800
      O    O18     4.84900    5.43200   48.47300
      C    C19     4.59300    4.70800   46.18000
      N    N20     7.75100    4.50100   45.04400
      C    C21     8.33500    4.57400   43.71300
      C    C22     7.39700    3.91400   42.72100
      O    O23     6.93100    2.79200   42.93900
      C    C24     9.70300    3.88000   43.67000
      C    C25    10.30500    3.96000   42.26600
      C    C26    10.64300    4.52000   44.68500
      N    N27     7.07700    4.62700   41.65100
      C    C28     6.19400    4.07600   40.62800
      C    C29     6.75500    4.36800   39.23900
      O    O30     7.30900    5.44000   39.00500
      C    C31     4.75900    4.64700   40.73600
      O    O32     4.78600    6.05900   40.49600
      C    C33     4.17500    4.39600   42.11900
      N    N34     6.62600    3.40400   38.33000
      C    C35     7.00000    3.62300   36.93700
      C    C36     5.72600    3.98800   36.18200
      O    O37     4.86900    3.13600   35.92400
      C    C38     7.66700    2.38600   36.33700
      C    C39     8.18400    2.49600   34.89600
      C    C40     9.28300    3.54300   34.77100
      C    C41     8.67600    1.13100   34.41800
      N    N42     5.61800    5.27200   35.86300
      C    C43     4.39800    5.88000   35.35200
      C    C44     4.45200    6.00900   33.83400
      O    O45     5.48200    6.37100   33.27400
      C    C46     4.22100    7.27600   35.98200
      C    C47     3.03300    8.01200   35.38000
      C    C48     4.06900    7.14200   37.50100
      N    N49     3.33900    5.68800   33.17600
      C    C50     3.21500    5.82600   31.73300
      C    C51     3.34300    7.31700   31.37100
      O    O52     2.61800    8.15800   31.91000
      C    C53     1.86100    5.22300   31.29200
      C    C54     1.61200    5.31200   29.79700
      O    O55     1.62800    6.42600   29.23700
      O    O56     1.34900    4.25900   29.17700
      N    N57     4.27100    7.63900   30.47100
      C    C58     4.56500    9.02800   30.10600
      C    C59     3.45800    9.66300   29.26300
      O    O60     3.27500   10.87900   29.28600
      C    C61     5.88700    9.09900   29.32600
      C    C62     7.09900    8.85600   30.20900
      O    O63     7.08200    9.29800   31.38200
      O    O64     8.06800    8.22300   29.74100
      N    N65     2.73700    8.83700   28.51300
      C    C66     1.72700    9.32300   27.58300
      C    C67     0.39300    9.64100   28.26000
      O    O68    -0.21600   10.67600   27.97000
      C    C69     1.52900    8.30900   26.45000
      C    C70     0.54900    8.74800   25.39200
      C    C71     0.93300    9.62800   24.39000
      C    C72    -0.74800    8.25800   25.38500
      C    C73     0.03300   10.02100   23.40700
      C    C74    -1.65400    8.65600   24.40800
      C    C75    -1.26200    9.53700   23.42400
      N    N76    -0.06500    8.76300   29.15400
      C    C77    -1.35700    8.99400   29.81300
      C    C78    -1.26100    9.30100   31.30700
      O    O79    -2.26900    9.59900   31.94500
      C    C80    -2.37500    7.86500   29.53300
      C    C81    -2.02500    6.52700   30.21900
      O    O82    -1.25900    6.47600   31.21000
      O    O83    -2.56600    5.49600   29.76900
      N    N84    -0.06200    9.18600   31.87400
      C    C85     0.15800    9.51700   33.27300
      C    C86    -0.67100    8.71900   34.26100
      O    O87    -0.71800    9.04600   35.44500
      N    N88    -1.30800    7.65200   33.78800
      C    C89    -2.36400    7.00000   34.55700
      C    C90    -2.07100    5.52700   34.80200
      O    O91    -2.24800    5.03900   35.91900
      C    C92    -3.72000    7.14500   33.84800
      O    O93    -3.97200    8.49300   33.48600
      N    N94    -1.62600    4.82100   33.76600
      C    C95    -1.31900    3.40800   33.91200
      C    C96     0.10300    3.17100   34.37300
      O    O97     0.93400    4.07800   34.33200
      N    N98     0.38800    1.95800   34.83700
      C    C99     1.76300    1.58200   35.13200
      C    C100     2.48200    1.30900   33.81000
      O    O101     1.92900    0.66900   32.90300
      C    C102     1.80700    0.34900   36.03200
      N    N103     3.71100    1.79400   33.68600
      C    C104     4.46400    1.54300   32.46500
      C    C105     5.00600    0.11500   32.48100
      O    O106     5.38000   -0.40800   33.53700
      C    C107     5.59000    2.55600   32.29500
      N    N108     5.02700   -0.51100   31.30700
      C    C109     5.50000   -1.88800   31.15600
      C    C110     6.81600   -1.98000   30.40100
      O    O111     7.56000   -2.95300   30.55100
      C    C112     4.44700   -2.72500   30.42400
      C    C113     3.21200   -2.96700   31.26400
      O    O114     3.32500   -3.68400   32.28600
      O    O115     2.12400   -2.45300   30.90200
      N    N116     7.10000   -0.98300   29.57100
      C    C117     8.29300   -1.01800   28.73400
      C    C118     8.70200    0.38200   28.31800
      O    O119     7.92000    1.32600   28.43500
      C    C120     8.05300   -1.86300   27.47800
      C    C121     6.95200   -1.31000   26.56800
      C    C122     6.55600   -2.26500   25.45500
      O    O123     7.29800   -2.36000   24.45700
      O    O124     5.49600   -2.92500   25.57000
      N    N125     9.93300    0.50900   27.83800
      C    C126    10.41300    1.76700   27.27100
      C    C127    10.50800    1.57800   25.76400
      O    O128    11.12700    0.61800   25.28500
      C    C129    11.80000    2.16400   27.82700
      O    O130    11.70800    2.39600   29.23900
      C    C131    12.28900    3.43900   27.17600
      N    N132     9.87500    2.46800   25.01200
      C    C133     9.95500    2.42700   23.56000
      C    C134    10.90500    3.50500   23.06700
      O    O135    10.78800    4.66100   23.46000
      C    C136     8.57100    2.65600   22.90300
      C    C137     8.67900    2.54000   21.38900
      C    C138     7.55100    1.65200   23.44300
      N    N139    11.84900    3.12800   22.20900
      C    C140    12.66600    4.12500   21.54000
      C    C141    12.04800    4.44800   20.18800
      O    O142    11.58300    3.55900   19.47400
      C    C143    14.11100    3.64800   21.35600
      C    C144    15.08000    4.80000   21.05500
      C    C145    16.47300    4.32300   20.67600
      O    O146    17.34000    4.23600   21.57500
      O    O147    16.70000    4.04300   19.47900
      N    N148    12.04000    5.72600   19.84200
      C    C149    11.57800    6.13800   18.52600
      C    C150    12.26700    7.44200   18.13100
      O    O151    13.03400    8.01500   18.90900
      C    C152    10.04500    6.27000   18.50000
      C    C153     9.51200    7.38400   19.36100
      C    C154     9.41800    7.23900   20.73900
      C    C155     9.08500    8.57400   18.78600
      C    C156     8.92600    8.27400   21.53300
      C    C157     8.59200    9.59900   19.56900
      C    C158     8.51100    9.44900   20.94500
      N    N159    12.01000    7.90700   16.91800
      C    C160    12.66000    9.10800   16.43800
      C    C161    11.82000    9.87900   15.44400
      O    O162    10.94600    9.31400   14.78300
      N    N163    12.07500   11.18000   15.35200
      C    C164    11.48700   12.00500   14.30100
      C    C165    12.41100   13.17000   13.95000
      O    O166    12.91100   13.87000   14.84000
      C    C167    10.10900   12.52900   14.72400
      C    C168     9.43000   13.51000   13.76000
      C    C169     9.16600   12.84800   12.41800
      C    C170     8.14400   14.08400   14.34400
      N    N171    12.63500   13.35900   12.65000
      C    C172    13.37800   14.51200   12.13200
      C    C173    14.76700   14.65000   12.73300
      O    O174    15.22100   15.76500   12.99800
      C    C175    12.58600   15.80900   12.34100
      C    C176    11.42000   15.93900   11.38500
      O    O177    11.56800   15.52600   10.21200
      O    O178    10.35800   16.45400   11.80500
      N    N179    15.42600   13.52000   12.97700
      C    C180    16.81500   13.52700   13.40000
      C    C181    17.02000   13.47400   14.90200
      O    O182    18.14600   13.34900   15.37700
      N    N183    15.93100   13.57400   15.65500
      C    C184    15.99900   13.48700   17.10600
      C    C185    15.45500   12.13500   17.55200
      O    O186    14.43700   11.68000   17.03500
      C    C187    15.16900   14.59600   17.78000
      C    C188    15.39100   14.56300   19.30000
      C    C189    15.54000   15.95900   17.22200
      N    N190    16.12400   11.51000   18.52100
      C    C191    15.71800   10.20200   19.04800
      C    C192    15.14100   10.37500   20.44800
      O    O193    15.61300   11.22100   21.20700
      C    C194    16.91200    9.22800   19.06700
      O    O195    17.44200    9.10900   17.73800
      C    C196    16.49600    7.85100   19.55000
      N    N197    14.09600    9.60500   20.75900
      C    C198    13.37700    9.69800   22.03100
      C    C199    13.19200    8.33900   22.70300
      O    O200    13.17500    7.29500   22.04800
      C    C201    11.97500   10.30800   21.83000
      C    C202    11.98600   11.66700   21.18200
      C    C203    11.94200   11.79000   19.79800
      C    C204    12.04600   12.82800   21.94900
      C    C205    11.95700   13.04300   19.18700
      C    C206    12.06300   14.08700   21.34200
      C    C207    12.02600   14.18200   19.96500
      O    O208    12.05200   15.41100   19.34600
      N    N209    13.06400    8.36400   24.02400
      C    C210    12.54800    7.23200   24.78000
      C    C211    11.24500    7.63800   25.46200
      O    O212    11.02900    8.81900   25.79100
      C    C213    13.54600    6.75900   25.84200
      C    C214    14.73500    6.00000   25.29400
      C    C215    15.69800    5.54800   26.39200
      O    O216    15.44300    5.84400   27.57800
      O    O217    16.71700    4.90200   26.06100
      N    N218    10.37700    6.65300   25.68900
      C    C219     9.11100    6.90200   26.36000
      C    C220     8.69900    5.63800   27.11800
      O    O221     8.79700    4.52100   26.58800
      C    C222     8.01700    7.40200   25.35500
      C    C223     6.77000    7.90500   26.09300
      C    C224     7.64100    6.30500   24.35300
      C    C225     5.75000    8.58900   25.17700
      N    N226     8.29400    5.80400   28.37900
      C    C227     7.86100    4.66600   29.18300
      C    C228     6.36500    4.52700   29.02800
      O    O229     5.62200    5.47800   29.26800
      C    C230     8.20400    4.87200   30.66200
      C    C231     9.68900    5.09600   30.89100
      O    O232    10.50000    4.58600   30.08500
      O    O233    10.04400    5.77800   31.87900
      N    N234     5.92500    3.33700   28.63300
      C    C235     4.53200    3.13800   28.27000
      C    C236     3.99200    1.84000   28.82700
      O    O237     4.72600    0.85600   28.97900
      C    C238     4.38800    3.11700   26.74500
      C    C239     4.71200    4.43300   26.03200
      C    C240     4.67200    4.25700   24.53700
      C    C241     3.73900    5.52300   26.47300
      N    N242     2.68900    1.83500   29.12600
      C    C243     1.97500    0.58600   29.32800
      C    C244     2.08500   -0.22600   28.03600
      O    O245     2.32500    0.32900   26.96100
      C    C246     0.49300    0.84800   29.65300
      O    O247    -0.21800    1.34800   28.51500
      N    N248     1.91200   -1.53600   28.14800
      C    C249     1.89700   -2.41100   26.97300
      C    C250     0.88900   -1.92800   25.92600
      O    O251     1.16600   -1.93300   24.72300
      C    C252     1.57200   -3.84900   27.39300
      O    O253     2.58400   -4.30500   28.30200
      C    C254     1.51600   -4.77500   26.18200
      N    N255    -0.27200   -1.48900   26.39600
      C    C256    -1.31600   -0.99000   25.51300
      C    C257    -0.89700    0.26700   24.75600
      O    O258    -1.12300    0.37600   23.54800
      C    C259    -2.60300   -0.74700   26.30500
      C    C260    -3.79500   -0.36200   25.44300
      C    C261    -5.08900   -0.42100   26.26900
      C    C262    -6.28300    0.07400   25.45500
      N    N263    -7.54600   -0.07400   26.26000
      N    N264    -0.28600    1.22200   25.45500
      C    C265     0.15600    2.45100   24.78900
      C    C266     1.37900    2.23200   23.90600
      O    O267     1.54500    2.91300   22.89700
      C    C268     0.39300    3.57800   25.79400
      C    C269    -0.90300    4.16600   26.31500
      O    O270    -1.87900    4.29600   25.57300
      N    N271    -0.92200    4.54000   27.58800
      N    N272     2.23400    1.27800   24.27700
      C    C273     3.35800    0.91400   23.41800
      C    C274     2.81900    0.36500   22.09700
      O    O275     3.33100    0.68300   21.02000
      C    C276     4.25400   -0.11000   24.10100
      N    N277     1.76300   -0.43600   22.18100
      C    C278     1.14100   -0.98600   20.98300
      C    C279     0.48600    0.12400   20.16200
      O    O280     0.54100    0.12000   18.93300
      C    C281     0.14700   -2.10200   21.34600
      O    O282     0.89400   -3.22000   21.82500
      C    C283    -0.66700   -2.53500   20.11900
      N    N284    -0.09200    1.10500   20.85000
      C    C285    -0.69700    2.24700   20.17700
      C    C286     0.35800    3.04700   19.39300
      O    O287     0.13000    3.41900   18.23900
      C    C288    -1.39800    3.13400   21.20700
      C    C289    -2.13500    4.32500   20.64000
      C    C290    -2.77200    5.13400   21.77800
      C    C291    -3.48500    6.38100   21.26600
      N    N292    -4.59200    6.04600   20.32600
      N    N293     1.50900    3.30000   20.01800
      C    C294     2.59200    4.04100   19.36700
      C    C295     3.09500    3.27700   18.15000
      O    O296     3.21900    3.83400   17.06100
      C    C297     3.74500    4.28400   20.35200
      C    C298     5.05400    4.91200   19.84200
      C    C299     4.79800    6.14700   18.98000
      C    C300     5.94000    5.27100   21.03200
      N    N301     3.38000    1.99500   18.33200
      C    C302     3.84800    1.17800   17.21600
      C    C303     2.80000    1.09900   16.11000
      O    O304     3.13800    1.08000   14.92300
      C    C305     4.25800   -0.21300   17.70800
      C    C306     5.47400   -0.16800   18.61700
      C    C307     6.03100   -1.54700   18.90400
      N    N308     7.33300   -1.44900   19.55600
      C    C309     7.54600   -1.64700   20.85200
      N    N310     6.53500   -1.96800   21.64600
      N    N311     8.77300   -1.52800   21.35100
      N    N312     1.52900    1.07000   16.49600
      C    C313     0.44500    1.09500   15.53100
      C    C314     0.38000    2.39800   14.75300
      O    O315     0.12100    2.38400   13.54700
      N    N316     0.61600    3.52100   15.43100
      C    C317     0.59700    4.83600   14.78000
      C    C318     1.69500    4.94100   13.73000
      O    O319     1.54300    5.63200   12.71700
      C    C320     0.76100    5.96600   15.80500
      C    C321    -0.52200    6.25400   16.57700
      O    O322    -1.60500    5.78700   16.15200
      O    O323    -0.45300    6.95600   17.60800
      N    N324     2.79900    4.24500   13.97800
      C    C325     3.95900    4.29100   13.09300
      C    C326     3.93300    3.21300   12.01400
      O    O327     4.72800    3.25700   11.07700
      C    C328     5.24500    4.15800   13.91300
      C    C329     5.78400    5.45600   14.50900
      C    C330     6.85000    5.16400   15.55200
      C    C331     6.36200    6.29500   13.37800
      N    N332     3.02900    2.24600   12.15800
      C    C333     2.98400    1.07800   11.27700
      C    C334     2.95600    1.41700    9.78500
      O    O335     3.74100    0.86400    9.00900
      C    C336     1.78600    0.18700   11.64000
      C    C337     1.62200   -1.03600   10.75600
      C    C338     0.71300   -2.06800   11.41000
      C    C339    -0.67200   -1.50500   11.70100
      N    N340    -1.50400   -2.46800   12.50100
      N    N341     2.06100    2.32600    9.39400
      C    C342     1.88900    2.67500    7.97700
      C    C343     3.13100    3.36700    7.40900
      O    O344     3.49000    3.17600    6.23800
      C    C345     0.63100    3.54200    7.77200
      C    C346     0.73400    4.96800    8.34500
      C    C347    -0.60900    5.68400    8.43100
      O    O348    -0.66600    6.90700    8.59200
      N    N349    -1.69700    4.92300    8.33100
      N    N350     3.79400    4.15100    8.25300
      C    C351     4.97900    4.89800    7.85000
      C    C352     6.20200    3.99000    7.74400
      O    O353     6.99700    4.11500    6.81800
      C    C354     5.22700    6.04300    8.83900
      C    C355     4.03500    6.94500    9.00200
      C    C356     3.22500    7.05400   10.10300
      C    C357     3.52100    7.86700    8.03400
      N    N358     2.24200    7.99100    9.87400
      C    C359     2.40200    8.50400    8.61100
      C    C360     3.90100    8.22200    6.73600
      C    C361     1.65700    9.46900    7.93400
      C    C362     3.15800    9.18500    6.06500
      C    C363     2.04800    9.79400    6.66400
      N    N364     6.35800    3.08900    8.71100
      C    C365     7.41400    2.08900    8.66800
      C    C366     7.29000    1.23000    7.40800
      O    O367     8.28700    0.99400    6.71400
      C    C368     7.39400    1.18800    9.92800
      C    C369     8.33300   -0.01900    9.75300
      C    C370     7.79300    1.99200   11.16300
      N    N371     6.06800    0.79400    7.09800
      C    C372     5.83700   -0.07400    5.93900
      C    C373     6.18300    0.62900    4.62400
      O    O374     6.64200   -0.00600    3.66200
      C    C375     4.39100   -0.55300    5.91200
      N    N376     5.96500    1.93900    4.58700
      C    C377     6.16900    2.72100    3.36600
      C    C378     7.60500    3.21200    3.22100
      O    O379     8.06600    3.50000    2.11300
      C    C380     5.20000    3.90100    3.33200
      N    N381     8.31700    3.30600    4.33800
      C    C382     9.66300    3.85000    4.33200
      C    C383    10.72200    2.80000    4.08400
      O    O384    10.41500    1.64300    3.77800
      N    N385    11.97700    3.20800    4.20700
      C    C386    13.09400    2.29600    4.02000
      C    C387    14.10100    2.45500    5.15100
      O    O388    14.28200    3.54900    5.69200
      C    C389    13.76200    2.54000    2.66600
      C    C390    14.32500    3.94200    2.52600
      C    C391    14.72900    4.25800    1.10100
      N    N392    14.81200    5.70300    0.93400
      C    C393    13.79900    6.46400    0.53200
      N    N394    12.62600    5.91300    0.22300
      N    N395    13.96800    7.77300    0.43000
      N    N396    14.75300    1.35800    5.51800
      C    C397    15.78300    1.41300    6.55000
      C    C398    16.96900    2.23000    6.07700
      O    O399    17.42000    2.08100    4.93300
      C    C400    16.26000    0.00800    6.90900
      C    C401    15.18600   -0.89100    7.47100
      C    C402    15.78000   -2.23300    7.87100
      N    N403    14.82500   -3.06200    8.59900
      C    C404    13.94700   -3.86600    8.01100
      N    N405    13.90400   -3.94200    6.68700
      N    N406    13.11300   -4.59200    8.74500
      N    N407    17.45400    3.10000    6.96100
      C    C408    18.66700    3.87800    6.73200
      C    C409    18.67600    4.63400    5.40600
      O    O410    17.81400    5.48100    5.15800
      C    C411    19.90800    2.97400    6.83400
      C    C412    21.12000    3.65600    6.24900
      C    C413    20.12700    2.58500    8.26800
