# CIF file generated by openbabel 2.3.2, see http://openbabel.sf.net
data_I
_chemical_name_common '../proteins/pdb/4E1R.pdb'
_cell_length_a 57.39
_cell_length_b 57.39
_cell_length_c 105.31
_cell_angle_alpha 90
_cell_angle_beta 90
_cell_angle_gamma 120
_space_group_name_H-M_alt 'P 31 2 1'
_space_group_name_Hall 'P 31 2"'
loop_
    _symmetry_equiv_pos_as_xyz
    'x,y,z'
    '-y,x-y,1/3+z'
    '-x+y,-x,2/3+z'
    'y,x,-z'
    'x-y,-y,2/3-z'
    '-x,-x+y,1/3-z'
loop_
    _atom_site_type_symbol
    _atom_site_label
    _atom_site_Cartn_x
    _atom_site_Cartn_y
    _atom_site_Cartn_z
      N    N1    58.93400  -21.01300   -5.12000
      C    C2    58.18700  -20.61900   -3.92500
      C    C3    56.79700  -21.24900   -3.90300
      O    O4    56.22500  -21.56700   -4.95300
      C    C5    58.10000  -19.09100   -3.80900
      C    C6    56.89200  -18.44200   -4.48700
      C    C7    57.16000  -18.14300   -5.95300
      C    C8    56.47800  -16.83700   -6.37500
      N    N9    56.87100  -16.39000   -7.75000
      N    N10    56.26300  -21.45500   -2.70600
      C    C11    54.91300  -21.98600   -2.59600
      C    C12    53.90600  -20.87600   -2.83700
      O    O13    53.90300  -19.86900   -2.13300
      C    C14    54.63700  -22.60900   -1.22200
      C    C15    53.21100  -23.20000   -1.18800
      C    C16    55.67200  -23.67100   -0.91000
      N    N17    53.07000  -21.04500   -3.85700
      C    C18    51.98600  -20.10200   -4.06700
      C    C19    50.63700  -20.79100   -3.88900
      O    O20    50.34500  -21.83500   -4.49800
      C    C21    52.08500  -19.37500   -5.42200
      O    O22    51.69500  -20.25700   -6.47800
      C    C23    53.51800  -18.90200   -5.66500
      N    N24    49.84200  -20.19700   -3.00700
      C    C25    48.49200  -20.64000   -2.72400
      C    C26    47.55700  -19.69700   -3.47300
      O    O27    47.66800  -18.47800   -3.32500
      C    C28    48.19600  -20.52900   -1.22100
      C    C29    46.89700  -21.23100   -0.89500
      C    C30    49.33600  -21.12400   -0.41000
      N    N31    46.65300  -20.24400   -4.28400
      C    C32    45.75400  -19.39600   -5.07300
      C    C33    44.27700  -19.75000   -4.88300
      O    O34    43.91800  -20.92500   -4.93000
      C    C35    46.07800  -19.49200   -6.57300
      O    O36    47.49200  -19.32300   -6.77600
      C    C37    45.29100  -18.43300   -7.37600
      N    N38    43.43200  -18.73500   -4.67500
      C    C39    41.97400  -18.91600   -4.68800
      C    C40    41.44800  -18.75600   -6.12700
      O    O41    41.40100  -17.64600   -6.67900
      C    C42    41.27000  -17.92700   -3.73900
      C    C43    39.79200  -18.22300   -3.41100
      C    C44    39.65300  -19.50900   -2.58900
      C    C45    39.09200  -17.04700   -2.70200
      N    N46    41.06100  -19.87400   -6.72700
      C    C47    40.65300  -19.90600   -8.13300
      C    C48    39.11900  -19.95300   -8.28600
      O    O49    38.45500  -20.74400   -7.61200
      C    C50    41.26700  -21.14000   -8.84400
      C    C51    40.87600  -21.18700  -10.32300
      C    C52    42.80500  -21.13900   -8.69800
      N    N53    38.57900  -19.09900   -9.15800
      C    C54    37.14200  -19.07900   -9.48600
      C    C55    36.69000  -20.44400  -10.01500
      O    O56    37.20100  -20.93200  -11.01800
      C    C57    36.87400  -17.96200  -10.50400
      C    C58    35.40200  -17.88700  -10.96300
      O    O59    34.80500  -18.92500  -11.35400
      O    O60    34.85500  -16.76300  -10.96700
      N    N61    35.75100  -21.08000   -9.32600
      C    C62    35.32500  -22.44200   -9.68100
      C    C63    34.50900  -22.49900  -10.96800
      O    O64    34.30900  -23.57300  -11.54000
      C    C65    34.47200  -23.02900   -8.55500
      C    C66    35.25500  -23.23500   -7.27800
      O    O67    36.33500  -23.86800   -7.34900
      O    O68    34.79500  -22.77200   -6.20900
      N    N69    34.01600  -21.34900  -11.41500
      C    C70    33.10100  -21.32900  -12.55700
      C    C71    33.81500  -21.18600  -13.91300
      O    O72    33.59000  -21.98300  -14.82000
      C    C73    32.05300  -20.23800  -12.37300
      C    C74    31.21700  -19.97700  -13.59700
      C    C75    30.32800  -20.93300  -14.06600
      C    C76    31.30400  -18.76400  -14.26100
      C    C77    29.55100  -20.68800  -15.19600
      C    C78    30.52600  -18.51100  -15.39000
      C    C79    29.65400  -19.47600  -15.85400
      N    N80    34.65000  -20.16100  -14.05200
      C    C81    35.40800  -19.97600  -15.28300
      C    C82    36.88700  -20.33300  -15.11300
      O    O83    37.69400  -20.10100  -16.00900
      C    C84    35.25900  -18.55400  -15.82800
      C    C85    35.82000  -17.49100  -14.89500
      O    O86    36.65600  -17.79100  -14.00400
      O    O87    35.42500  -16.31600  -15.07100
      N    N88    37.23800  -20.87200  -13.94900
      C    C89    38.59300  -21.32700  -13.69400
      C    C90    39.70800  -20.29400  -13.77000
      O    O91    40.87900  -20.65200  -13.62000
      N    N92    39.38600  -19.02200  -13.98600
      C    C93    40.45800  -18.06100  -14.26500
      C    C94    40.47400  -16.85400  -13.33100
      O    O95    39.56000  -16.01900  -13.36800
      C    C96    40.40700  -17.60500  -15.74200
      O    O97    41.66100  -17.09600  -16.20400
      N    N98    41.49100  -16.80500  -12.46300
      C    C99    41.81000  -15.60000  -11.72000
      C    C100    41.76400  -15.67200  -10.20400
      O    O101    41.56900  -16.73900   -9.60300
      N    N102    41.96500  -14.51500   -9.58200
      C    C103    41.83300  -14.38100   -8.13700
      C    C104    40.35400  -14.24800   -7.83900
      O    O105    39.76500  -13.20200   -8.13700
      C    C106    42.56500  -13.14400   -7.65000
      N    N107    39.75400  -15.30600   -7.28800
      C    C108    38.36600  -15.25100   -6.84100
      C    C109    38.26600  -14.22300   -5.71100
      O    O110    39.19300  -14.09200   -4.91000
      C    C111    37.89000  -16.62800   -6.36700
      N    N112    37.14300  -13.50700   -5.65100
      C    C113    36.94400  -12.44100   -4.67000
      C    C114    36.06500  -12.82200   -3.46900
      O    O115    36.16900  -12.21300   -2.39400
      C    C116    36.36500  -11.18600   -5.34800
      C    C117    37.29800  -10.59200   -6.40300
      O    O118    38.17100   -9.77200   -6.03600
      O    O119    37.14700  -10.91700   -7.60800
      N    N120    35.19000  -13.80900   -3.64000
      C    C121    34.26200  -14.17700   -2.56300
      C    C122    33.77600  -15.61100   -2.68700
      O    O123    33.85800  -16.21400   -3.75100
      C    C124    33.05700  -13.21000   -2.51300
      C    C125    32.13700  -13.26200   -3.73600
      C    C126    31.16300  -12.06900   -3.82800
      O    O127    30.21900  -11.96700   -2.99800
      O    O128    31.34600  -11.23200   -4.74600
      N    N129    33.29500  -16.16700   -1.58400
      C    C130    32.66100  -17.47400   -1.62700
      C    C131    31.16000  -17.25400   -1.44200
      O    O132    30.73400  -16.56300   -0.50900
      C    C133    33.19200  -18.42500   -0.53400
      O    O134    34.62400  -18.51400   -0.62300
      C    C135    32.58100  -19.84400   -0.68900
      N    N136    30.36300  -17.84200   -2.32800
      C    C137    28.91300  -17.70100   -2.25000
      C    C138    28.27400  -19.01700   -1.82500
      O    O139    28.67000  -20.09300   -2.30100
      C    C140    28.31400  -17.24500   -3.60400
      C    C141    26.80000  -16.97800   -3.46400
      C    C142    29.01000  -15.99100   -4.08500
      N    N143    27.29400  -18.93300   -0.92200
      C    C144    26.53800  -20.11300   -0.50600
      C    C145    25.17700  -20.12700   -1.20700
      O    O146    24.52900  -19.08300   -1.35200
      C    C147    26.34100  -20.14000    1.01200
      C    C148    26.06800  -21.54100    1.57200
      C    C149    25.51300  -21.49400    2.99900
      O    O150    26.01300  -22.23700    3.87700
      O    O151    24.56800  -20.70900    3.23700
      N    N152    24.76100  -21.30400   -1.65400
      C    C153    23.48600  -21.44100   -2.34800
      C    C154    22.99800  -22.87400   -2.24900
      O    O155    23.71100  -23.74400   -1.72900
      C    C156    23.57900  -20.97200   -3.80500
      C    C157    24.35200  -21.90300   -4.70600
      C    C158    25.73600  -21.81700   -4.79800
      C    C159    23.69100  -22.84300   -5.48100
      C    C160    26.44600  -22.67700   -5.63100
      C    C161    24.38900  -23.69100   -6.32200
      C    C162    25.77100  -23.61000   -6.39300
      N    N163    21.78100  -23.12900   -2.72500
      C    C164    21.18400  -24.43300   -2.50200
      C    C165    20.14000  -24.82200   -3.51600
      O    O166    19.55500  -23.95300   -4.14600
      N    N167    19.93300  -26.12900   -3.67000
      C    C168    18.89100  -26.66300   -4.53500
      C    C169    18.48900  -28.04900   -4.05200
      O    O170    19.34600  -28.88200   -3.74000
      C    C171    19.34600  -26.72700   -5.99600
      C    C172    18.32800  -27.30400   -6.98600
      C    C173    17.00500  -26.54800   -6.90000
      C    C174    18.86900  -27.25800   -8.40900
      N    N175    17.18200  -28.28200   -3.96900
      C    C176    16.63800  -29.59500   -3.62000
      C    C177    17.15200  -30.10800   -2.28600
      O    O178    17.35800  -31.30600   -2.11600
      C    C179    16.88400  -30.60300   -4.75200
      C    C180    16.14900  -30.22000   -6.03400
      O    O181    15.18900  -29.42200   -5.92400
      O    O182    16.51200  -30.70300   -7.14400
      N    N183    17.36700  -29.18100   -1.35200
      C    C184    17.79100  -29.52300   -0.00300
      C    C185    19.30100  -29.68900    0.12500
      O    O186    19.81400  -29.95000    1.21300
      N    N187    20.02400  -29.54700   -0.98400
      C    C188    21.48100  -29.61900   -0.92400
      C    C189    22.08900  -28.22400   -0.88400
      O    O190    21.70500  -27.34200   -1.65000
      C    C191    22.08200  -30.39700   -2.09500
      C    C192    23.59100  -30.57200   -1.87500
      C    C193    21.39800  -31.74600   -2.23600
      N    N194    23.03800  -28.02500    0.02000
      C    C195    23.72600  -26.74400    0.12900
      C    C196    25.08700  -26.81300   -0.55900
      O    O197    25.79600  -27.81400   -0.45100
      C    C198    23.91000  -26.35500    1.59800
      O    O199    22.62500  -26.33400    2.23100
      C    C200    24.56800  -24.96400    1.73000
      N    N201    25.43700  -25.74500   -1.26900
      C    C202    26.70700  -25.66000   -1.98300
      C    C203    27.44900  -24.38900   -1.61000
      O    O204    26.84600  -23.40500   -1.17700
      C    C205    26.49100  -25.66100   -3.51100
      C    C206    25.71000  -26.83300   -4.04000
      C    C207    24.31800  -26.78700   -4.11000
      C    C208    26.35200  -27.99100   -4.47400
      C    C209    23.59200  -27.86000   -4.58000
      C    C210    25.62800  -29.07200   -4.96000
      C    C211    24.24200  -28.99800   -5.00700
      O    O212    23.50400  -30.06100   -5.48600
      N    N213    28.76800  -24.42500   -1.80200
      C    C214    29.61700  -23.24900   -1.72000
      C    C215    30.41100  -23.15700   -3.02100
      O    O216    30.70100  -24.17600   -3.64300
      C    C217    30.58200  -23.36200   -0.53400
      C    C218    29.90400  -23.31800    0.82700
      C    C219    30.85100  -22.87000    1.93100
      O    O220    32.05700  -23.22800    1.86100
      O    O221    30.39200  -22.15000    2.85600
      N    N222    30.77700  -21.94400   -3.42200
      C    C223    31.51600  -21.76300   -4.66300
      C    C224    32.36000  -20.49500   -4.60700
      O    O225    31.88900  -19.45500   -4.12400
      C    C226    30.56300  -21.73000   -5.89300
      C    C227    31.35800  -21.73300   -7.21800
      C    C228    29.58000  -20.54900   -5.81000
      C    C229    30.43900  -21.81500   -8.47700
      N    N230    33.60600  -20.58000   -5.08700
      C    C231    34.51000  -19.42800   -5.07100
      C    C232    34.42800  -18.73500   -6.41000
      O    O233    34.50600  -19.39400   -7.45300
      C    C234    35.96100  -19.86300   -4.78500
      C    C235    36.07000  -20.76200   -3.57500
      O    O236    35.48400  -20.40600   -2.52700
      O    O237    36.72500  -21.83200   -3.66200
      N    N238    34.27900  -17.40900   -6.39200
      C    C239    33.99300  -16.68400   -7.61700
      C    C240    34.63200  -15.31700   -7.64900
      O    O241    34.84400  -14.70000   -6.60700
      C    C242    32.47100  -16.51000   -7.78200
      C    C243    31.58200  -17.75900   -7.92200
      C    C244    30.11800  -17.33100   -8.03400
      C    C245    31.98900  -18.55900   -9.14800
      N    N246    34.90600  -14.82600   -8.85400
      C    C247    35.24100  -13.42000   -9.03800
      C    C248    34.03000  -12.56600   -8.69600
      O    O249    32.90400  -13.05600   -8.68500
      C    C250    35.63100  -13.16000  -10.48400
      O    O251    34.60600  -13.61100  -11.34700
      N    N252    34.26100  -11.29200   -8.40500
      C    C253    33.16100  -10.37200   -8.12400
      C    C254    32.13100  -10.39500   -9.26700
      O    O255    30.92200  -10.47500   -9.03000
      C    C256    33.69300   -8.94600   -7.89000
      O    O257    34.48300   -8.92800   -6.68900
      C    C258    32.54400   -7.94200   -7.76100
      N    N259    32.63200  -10.35900  -10.50000
      C    C260    31.82500  -10.45100  -11.71800
      C    C261    30.93100  -11.70100  -11.73000
      O    O262    29.72500  -11.62600  -12.00300
      C    C263    32.76600  -10.46100  -12.93800
      C    C264    32.09300  -10.50500  -14.30100
      C    C265    33.06700  -11.03600  -15.37600
      C    C266    32.47800  -10.92700  -16.79300
      N    N267    33.44100  -11.33100  -17.87200
      N    N268    31.52100  -12.85200  -11.42400
      C    C269    30.77700  -14.10500  -11.45000
      C    C270    29.75800  -14.25000  -10.32100
      O    O271    28.68500  -14.79500  -10.54000
      C    C272    31.72800  -15.30800  -11.50000
      C    C273    32.41900  -15.44000  -12.85000
      O    O274    31.89800  -14.97300  -13.87100
      N    N275    33.58200  -16.10000  -12.86900
      N    N276    30.08500  -13.77900   -9.11900
      C    C277    29.11800  -13.82400   -8.01400
      C    C278    27.90900  -12.92500   -8.32100
      O    O279    26.77900  -13.23300   -7.94800
      C    C280    29.77100  -13.42100   -6.70300
      N    N281    28.15000  -11.81500   -9.00600
      C    C282    27.05700  -10.96100   -9.45900
      C    C283    26.20600  -11.70300  -10.49300
      O    O284    24.97400  -11.58200  -10.52300
      C    C285    27.59500   -9.62800  -10.01300
      O    O286    27.98200   -8.79100   -8.91500
      C    C287    26.54700   -8.90600  -10.82600
      N    N288    26.86900  -12.50100  -11.32000
      C    C289    26.18200  -13.31300  -12.30700
      C    C290    25.30900  -14.38500  -11.64000
      O    O291    24.16100  -14.59400  -12.03400
      C    C292    27.19400  -13.94500  -13.26500
      C    C293    26.80500  -13.86400  -14.72200
      C    C294    27.85100  -14.54900  -15.60700
      C    C295    29.14200  -13.75000  -15.65900
      N    N296    29.26600  -12.97300  -16.93400
      N    N297    25.83000  -15.05500  -10.62200
      C    C298    25.04400  -16.09300   -9.96700
      C    C299    23.85100  -15.49300   -9.22900
      O    O300    22.73700  -16.02700   -9.28200
      C    C301    25.90800  -16.92000   -9.01200
      C    C302    25.22200  -17.87000   -8.02400
      C    C303    24.29600  -18.86700   -8.71700
      C    C304    26.28500  -18.63300   -7.23100
      N    N305    24.06800  -14.37300   -8.55800
      C    C306    22.96000  -13.77100   -7.81800
      C    C307    21.92800  -13.24700   -8.79800
      O    O308    20.74100  -13.23700   -8.49700
      C    C309    23.45700  -12.67100   -6.88200
      C    C310    24.28200  -13.23200   -5.74100
      C    C311    24.55400  -12.19800   -4.67700
      N    N312    25.19800  -12.80100   -3.51200
      C    C313    26.50300  -12.73300   -3.25600
      N    N314    27.31000  -12.07100   -4.07600
      N    N315    26.99200  -13.31700   -2.16900
      N    N316    22.39400  -12.83800   -9.97600
      C    C317    21.51700  -12.36200  -11.03600
      C    C318    20.61700  -13.46500  -11.57700
      O    O319    19.47100  -13.21400  -11.92300
      N    N320    21.13900  -14.68600  -11.64300
      C    C321    20.39100  -15.82300  -12.16100
      C    C322    19.32800  -16.26500  -11.17300
      O    O323    18.33600  -16.89000  -11.55200
      C    C324    21.31300  -17.02000  -12.42400
      C    C325    22.24400  -16.80700  -13.60600
      O    O326    22.02500  -15.85700  -14.38700
      O    O327    23.19000  -17.61700  -13.76300
      N    N328    19.54600  -15.97500   -9.89700
      C    C329    18.62400  -16.44000   -8.87300
      C    C330    17.57700  -15.38000   -8.53500
      O    O331    16.56000  -15.67600   -7.89500
      C    C332    19.39400  -16.87100   -7.62100
      C    C333    19.90300  -18.31300   -7.71500
      C    C334    20.72000  -18.67200   -6.48000
      C    C335    18.72600  -19.25900   -7.85200
      N    N336    17.82700  -14.16000   -8.99600
      C    C337    17.00300  -13.00700   -8.65700
      C    C338    15.50700  -13.25700   -8.87600
      O    O339    14.68900  -13.04200   -7.96900
      C    C340    17.45900  -11.78400   -9.45400
      C    C341    16.90700  -10.46200   -8.95500
      C    C342    17.42700   -9.31500   -9.80000
      C    C343    17.06900   -7.96800   -9.19800
      N    N344    17.66700   -6.86400  -10.01100
      N    N345    15.15100  -13.74700  -10.05600
      C    C346    13.73700  -13.87700  -10.39200
      C    C347    13.06500  -15.00100   -9.60600
      O    O348    11.87400  -14.93200   -9.30200
      C    C349    13.55100  -14.06100  -11.90200
      C    C350    14.03300  -15.39500  -12.46800
      C    C351    14.05000  -15.38700  -14.00100
      O    O352    13.47600  -14.49800  -14.63100
      N    N353    14.72800  -16.36100  -14.59800
      N    N354    13.82500  -16.03200   -9.25300
      C    C355    13.23900  -17.15300   -8.53100
      C    C356    13.05100  -16.81100   -7.05700
      O    O357    12.06000  -17.22800   -6.43300
      C    C358    14.09000  -18.41100   -8.70300
      C    C359    14.29300  -18.74100  -10.13800
      C    C360    15.43200  -18.54900  -10.87700
      C    C361    13.31900  -19.29300  -11.03400
      N    N362    15.22700  -18.96400  -12.17700
      C    C363    13.94200  -19.42900  -12.29900
      C    C364    11.98700  -19.69800  -10.88900
      C    C365    13.27100  -19.94300  -13.41400
      C    C366    11.32600  -20.21800  -11.99700
      C    C367    11.96900  -20.33100  -13.24300
      N    N368    13.99800  -16.04900   -6.50800
      C    C369    13.87300  -15.55500   -5.14700
      C    C370    12.67800  -14.59600   -5.00400
      O    O371    11.90700  -14.70600   -4.05400
      C    C372    15.18800  -14.90900   -4.66700
      C    C373    14.95400  -14.04400   -3.44600
      C    C374    16.21900  -16.00800   -4.38400
      N    N375    12.51800  -13.67600   -5.95100
      C    C376    11.35900  -12.78700   -5.95200
      C    C377    10.01000  -13.54800   -5.97300
      O    O378     9.12000  -13.25800   -5.17200
      C    C379    11.44700  -11.81500   -7.12200
      N    N380     9.86500  -14.52200   -6.87300
      C    C381     8.61100  -15.26700   -6.99300
      C    C382     8.43400  -16.26800   -5.86500
      O    O383     7.32000  -16.74300   -5.61900
      C    C384     8.53400  -15.99100   -8.34000
      N    N385     9.53200  -16.60100   -5.18900
      C    C386     9.50800  -17.64300   -4.18000
      C    C387     9.23600  -17.04500   -2.81700
      O    O388     9.09600  -15.82100   -2.67400
      N    N389     9.17900  -17.89600   -1.80400
      C    C390     8.97400  -17.39700   -0.45800
      C    C391     9.92600  -18.05400    0.53700
      O    O392    10.20100  -19.25700    0.46300
      C    C393     7.50900  -17.57600   -0.03300
      C    C394     7.13000  -19.00900    0.25600
      C    C395     5.62300  -19.24400    0.11500
      N    N396     5.39800  -20.50800   -0.57500
      C    C397     5.09900  -20.61600   -1.86500
      N    N398     4.93600  -19.53200   -2.61500
      N    N399     4.94200  -21.81300   -2.39800
      N    N400    10.43700  -17.24600    1.45800
      C    C401    11.38300  -17.72400    2.45700
      C    C402    10.74900  -18.77600    3.36100
      O    O403     9.60400  -18.63100    3.77800
      C    C404    11.90800  -16.53900    3.28200
      C    C405    12.87600  -16.92000    4.39200
      C    C406    13.54600  -15.68300    4.99900
      N    N407    12.58400  -14.73700    5.57400
      C    C408    12.55000  -13.43700    5.28800
      N    N409    13.42500  -12.92300    4.43000
      N    N410    11.64200  -12.64800    5.85700
      N    N411    11.48200  -19.85100    3.63900
      C    C412    11.04600  -20.81900    4.63600
      C    C413    11.92000  -20.76500    5.89500
      O    O414    12.99000  -20.14800    5.89900
      C    C415    11.00500  -22.25400    4.08100
      C    C416    12.20000  -22.52100    3.18400
      C    C417    10.95500  -23.26900    5.22100
