# CIF file generated by openbabel 2.3.2, see http://openbabel.sf.net
data_I
_chemical_name_common '../proteins/pdb/4EMN.pdb'
_cell_length_a 42.545
_cell_length_b 50.733
_cell_length_c 66.421
_cell_angle_alpha 90
_cell_angle_beta 104.09
_cell_angle_gamma 90
_space_group_name_H-M_alt 'P 1 21 1'
_space_group_name_Hall 'P 2yb'
loop_
    _symmetry_equiv_pos_as_xyz
    'x,y,z'
    '-x,1/2+y,-z'
loop_
    _atom_site_type_symbol
    _atom_site_label
    _atom_site_Cartn_x
    _atom_site_Cartn_y
    _atom_site_Cartn_z
      N    N1     0.00100   18.33700   -6.18600
      C    C2     0.56000   17.12800   -5.58500
      C    C3    -0.04000   15.82700   -6.10600
      O    O4    -1.12800   15.81200   -6.67200
      N    N5     0.63900   14.70800   -5.91600
      C    C6     0.28900   13.34500   -6.19500
      C    C7     0.67500   12.48900   -4.98900
      O    O8     1.56700   12.88000   -4.21800
      C    C9     1.06200   12.63700   -7.32500
      O    O10     1.37400   13.52900   -8.38400
      N    N11     0.08500   11.29500   -4.87500
      C    C12     0.56200   10.32500   -3.89700
      C    C13     2.06100   10.06100   -4.04000
      O    O14     2.78900    9.73000   -3.09300
      C    C15    -0.16800    8.97700   -4.02700
      C    C16     0.13900    8.05000   -2.85100
      C    C17     0.11200    8.31100   -5.38000
      C    C18    -0.78600    6.84800   -2.74000
      N    N19     2.56600   10.18500   -5.26000
      C    C20     3.96300    9.91200   -5.53500
      C    C21     4.88400   10.91200   -4.85600
      O    O22     6.06900   10.58900   -4.68400
      C    C23     4.21700    9.92100   -7.07300
      C    C24     3.50700    8.72700   -7.68100
      C    C25     2.32600    8.78300   -8.41600
      C    C26     3.90600    7.35900   -7.62700
      N    N27     1.99000    7.51800   -8.79300
      C    C28     2.92700    6.61900   -8.33400
      C    C29     4.97600    6.67600   -7.04700
      C    C30     3.00300    5.24000   -8.47500
      C    C31     5.06300    5.29100   -7.18100
      C    C32     4.06700    4.60200   -7.89800
      N    N33     4.39300   12.09600   -4.50800
      C    C34     5.26700   13.05000   -3.83200
      C    C35     5.64500   12.55100   -2.44900
      O    O36     6.76300   12.74100   -2.00900
      C    C37     4.62200   14.44100   -3.77800
      C    C38     4.52900   15.01200   -5.18700
      O    O39     5.55000   15.09200   -5.92400
      O    O40     3.40100   15.38700   -5.56800
      N    N41     4.75200   11.89700   -1.72400
      C    C42     5.07500   11.32300   -0.44100
      C    C43     6.07000   10.17100   -0.62100
      O    O44     6.99100   10.02600    0.16800
      C    C45     3.86800   10.80800    0.32100
      N    N46     5.88800    9.39400   -1.69500
      C    C47     6.92100    8.34800   -1.93900
      C    C48     8.26500    8.95000   -2.24300
      O    O49     9.27500    8.44600   -1.72300
      C    C50     6.41000    7.41000   -3.04900
      C    C51     5.06700    6.80300   -2.58600
      C    C52     7.49400    6.43600   -3.42000
      C    C53     4.50300    5.76000   -3.53000
      N    N54     8.31300   10.01200   -3.05500
      C    C55     9.54300   10.66400   -3.39000
      C    C56    10.16300   11.40200   -2.21300
      O    O57    11.39100   11.51300   -2.16500
      C    C58     9.38100   11.60100   -4.59300
      N    N59     9.37000   11.87500   -1.25400
      C    C60     9.97700   12.46300   -0.05300
      C    C61    10.74700   11.37600    0.68000
      O    O62    11.89200   11.59500    1.12100
      N    N63    10.16900   10.20200    0.79100
      C    C64    10.73300    9.05100    1.48400
      C    C65    11.94200    8.47400    0.73600
      O    O66    12.97600    8.09800    1.32700
      C    C67     9.61800    8.02300    1.67000
      S    S68    10.05100    6.46800    2.48200
      N    N69    11.78500    8.35900   -0.58100
      C    C70    12.84700    7.72800   -1.38100
      C    C71    14.00500    8.62800   -1.73100
      O    O72    15.14800    8.14700   -1.88500
      C    C73    12.27200    7.25000   -2.74000
      C    C74    11.31600    6.06000   -2.62100
      C    C75    11.95800    4.76400   -2.17500
      O    O76    13.22100    4.67400   -2.06400
      O    O77    11.12700    3.84500   -1.93300
      N    N78    13.76200    9.91600   -1.86400
      C    C79    14.73300   10.80100   -2.49400
      C    C80    14.78300   12.16400   -1.83600
      O    O81    15.38000   13.09100   -2.39300
      C    C82    14.41400   10.99100   -3.98400
      N    N83    14.10300   12.37100   -0.70000
      C    C84    14.06900   13.71300   -0.14100
      C    C85    13.42900   14.72000   -1.06800
      O    O86    13.69900   15.93200   -0.96500
      N    N87    12.53400   14.29000   -1.97200
      C    C88    11.80900   15.18500   -2.84400
      C    C89    12.67000   15.68900   -4.00900
      O    O90    12.25500   16.62800   -4.67300
      N    N91    13.83700   15.09800   -4.24100
      C    C92    14.69700   15.46200   -5.36200
      C    C93    14.56400   14.41300   -6.43400
      O    O94    15.15000   13.33600   -6.34100
      C    C95    16.15200   15.58100   -4.87300
      C    C96    17.04300   16.09000   -5.99300
      O    O97    16.62500   16.15300   -7.15800
      N    N98    18.29100   16.42100   -5.69800
      N    N99    13.72400   14.73200   -7.43900
      C    C100    13.48300   13.72100   -8.47800
      C    C101    14.64100   13.51400   -9.45300
      O    O102    14.56800   12.57800  -10.27400
      C    C103    12.25400   14.13600   -9.26100
      C    C104    10.97900   14.07300   -8.42300
      C    C105    10.59700   14.94700   -7.44000
      C    C106     9.96300   13.06300   -8.51100
      N    N107     9.38000   14.56300   -6.90200
      C    C108     8.98500   13.41400   -7.55000
      C    C109     9.76700   11.91300   -9.29300
      C    C110     7.84700   12.65200   -7.37100
      C    C111     8.62200   11.14900   -9.10800
      C    C112     7.67400   11.51700   -8.14800
      N    N113    15.71300   14.25600   -9.36200
      C    C114    16.89700   14.12200  -10.19800
      C    C115    18.07500   13.47300   -9.46700
      O    O116    19.19900   13.51700   -9.96200
      C    C117    17.33100   15.47800  -10.75300
      N    N118    17.80000   12.87500   -8.29700
      C    C119    18.90600   12.27800   -7.56600
      C    C120    19.50600   11.09800   -8.32200
      O    O121    18.81400   10.30000   -8.95500
      C    C122    18.44800   11.93700   -6.13700
      C    C123    19.64200   11.86000   -5.18700
      C    C124    17.57800   10.69500   -6.00500
      C    C125    19.24000   12.35000   -3.81700
      N    N126    20.84100   10.98100   -8.23800
      C    C127    21.64800    9.94600   -8.90200
      C    C128    22.90600    9.78500   -8.10500
      O    O129    23.97600   10.29900   -8.40500
      C    C130    21.96000   10.38900  -10.33300
      C    C131    22.86600    9.42200  -11.06200
      O    O132    22.91000    8.23400  -10.70300
      N    N133    23.56700    9.93200  -12.09600
      N    N134    22.75700    9.02900   -7.02500
      C    C135    23.83900    8.95000   -6.04000
      C    C136    24.82800    7.83500   -6.29800
      O    O137    25.88200    7.78600   -5.64100
      C    C138    23.31700    8.74200   -4.58700
      O    O139    22.65100    7.46400   -4.55500
      C    C140    22.33600    9.81300   -4.13300
      N    N141    24.50700    6.91200   -7.19500
      C    C142    25.39400    5.79200   -7.49500
      C    C143    25.06600    4.50300   -6.75500
      O    O144    25.87200    3.54300   -6.76600
      N    N145    23.89900    4.46100   -6.11900
      C    C146    23.50000    3.32600   -5.30700
      C    C147    22.71800    2.27300   -6.07700
      O    O148    22.01800    1.42200   -5.49300
      C    C149    22.69600    3.83200   -4.09600
      C    C150    21.34300    4.43500   -4.41800
      O    O151    20.50500    4.65100   -3.51300
      N    N152    21.11000    4.71400   -5.69500
      N    N153    22.70700    2.36200   -7.41600
      C    C154    21.91600    1.39300   -8.19700
      C    C155    20.47400    1.77200   -8.43900
      O    O156    19.74900    1.06300   -9.14300
      N    N157    20.07600    2.92200   -7.89900
      C    C158    18.71900    3.44600   -8.01400
      C    C159    18.78600    4.89500   -8.48800
      O    O160    19.81800    5.58900   -8.29900
      C    C161    18.03600    3.40100   -6.67300
      C    C162    17.69700    2.03600   -6.13000
      C    C163    17.97200    1.82200   -4.76900
      C    C164    17.08900    1.04200   -6.85200
      C    C165    17.65100    0.58800   -4.23200
      C    C166    16.78200   -0.19700   -6.31500
      C    C167    17.06900   -0.40700   -4.97800
      O    O168    16.75800   -1.62400   -4.40000
      N    N169    17.72600    5.34900   -9.14200
      C    C170    17.72200    6.63800   -9.79200
      C    C171    16.42800    7.40500   -9.63600
      O    O172    15.33200    6.83500   -9.76400
      C    C173    17.86800    6.40800  -11.33200
      C    C174    19.13600    5.65200  -11.65700
      C    C175    19.15600    4.25100  -11.72000
      C    C176    20.33800    6.33100  -11.87200
      C    C177    20.33500    3.54400  -12.01100
      C    C178    21.50700    5.63100  -12.15800
      C    C179    21.49400    4.26100  -12.22200
      O    O180    22.65000    3.57400  -12.50200
      N    N181    16.56700    8.71600   -9.38300
      C    C182    15.42600    9.60100   -9.39100
      C    C183    14.51100    9.51600   -8.19800
      O    O184    14.84100    8.92600   -7.14000
      N    N185    13.37200   10.19100   -8.29400
      C    C186    12.53400   10.45000   -7.13900
      C    C187    11.91700    9.24600   -6.50800
      O    O188    11.60400    9.31700   -5.30300
      N    N189    11.68300    8.14100   -7.25700
      C    C190    11.12400    6.96000   -6.63300
      C    C191    12.11400    5.80200   -6.69000
      O    O192    11.80800    4.64800   -6.44300
      C    C193     9.73800    6.57400   -7.19700
      C    C194     8.77900    7.77000   -7.04000
      C    C195     9.76700    6.10100   -8.65200
      N    N196    13.38200    6.10000   -6.97500
      C    C197    14.50300    5.16000   -6.82000
      C    C198    14.28400    3.92800   -7.67100
      O    O199    14.45100    2.78300   -7.23000
      C    C200    14.78800    4.84700   -5.33500
      C    C201    15.32300    6.07800   -4.56800
      C    C202    16.79700    6.33200   -4.85300
      O    O203    17.16400    7.18500   -5.69700
      N    N204    17.60500    5.56100   -4.14200
      N    N205    13.93300    4.14200   -8.96900
      C    C206    13.95000    2.99400   -9.87000
      C    C207    15.34600    2.43400  -10.05200
      O    O208    16.31200    3.21400  -10.13200
      C    C209    13.56800    3.43200  -11.30500
      C    C210    12.10400    3.68400  -11.57500
      C    C211    11.54400    4.95300  -11.60500
      C    C212    11.34900    2.55700  -11.81100
      C    C213    10.17700    5.14600  -11.89900
      C    C214    10.00400    2.74800  -12.11700
      C    C215     9.44600    4.00900  -12.15700
      N    N216    15.45700    1.09700  -10.17000
      C    C217    16.69900    0.57100  -10.73400
      C    C218    16.59700    0.66300  -12.25700
      O    O219    15.50000    0.84600  -12.82500
      C    C220    16.97500   -0.84700  -10.26900
      C    C221    15.90900   -1.85900  -10.55300
      O    O222    14.71200   -1.64300  -10.44700
      O    O223    16.20700   -3.02200  -10.85400
      N    N224    17.70800    0.53200  -12.96300
      C    C225    17.64600    0.71000  -14.41400
      C    C226    16.81400   -0.35900  -15.10200
      O    O227    16.10700   -0.02800  -16.06000
      C    C228    19.08300    0.71400  -14.97700
      C    C229    19.09700    1.07200  -16.46400
      C    C230    18.69700    2.51900  -16.73100
      O    O231    18.70400    3.36700  -15.84700
      N    N232    18.34200    2.85300  -17.98700
      N    N233    16.88000   -1.60000  -14.61000
      C    C234    16.09200   -2.62300  -15.29800
      C    C235    14.59100   -2.30400  -15.24800
      O    O236    13.88400   -2.46100  -16.23100
      N    N237    14.10200   -1.86500  -14.08400
      C    C238    12.69700   -1.50500  -13.95400
      C    C239    12.35400   -0.28500  -14.78500
      O    O240    11.29600   -0.29800  -15.40900
      C    C241    12.31800   -1.28400  -12.47600
      O    O242    12.59000   -2.49100  -11.72800
      C    C243    10.83400   -0.98700  -12.38100
      N    N244    13.20400    0.72100  -14.79200
      C    C245    12.97900    1.86700  -15.64800
      C    C246    12.72300    1.43600  -17.08300
      O    O247    11.75600    1.86000  -17.73900
      C    C248    14.19500    2.80600  -15.59400
      C    C249    14.03700    4.05400  -16.40700
      C    C250    14.76300    4.37800  -17.50900
      C    C251    13.09800    5.12400  -16.21100
      N    N252    14.37500    5.59000  -18.00700
      C    C253    13.33000    6.07400  -17.23700
      C    C254    12.09000    5.36700  -15.28000
      C    C255    12.59300    7.25600  -17.34800
      C    C256    11.36900    6.55400  -15.42500
      C    C257    11.59900    7.48900  -16.44100
      N    N258    13.64800    0.61400  -17.59500
      C    C259    13.54700    0.19600  -19.02800
      C    C260    12.35800   -0.73900  -19.20700
      O    O261    11.62700   -0.62800  -20.23100
      C    C262    14.87000   -0.46400  -19.45900
      C    C263    16.01900    0.54500  -19.42400
      C    C264    17.30400    0.04100  -20.01500
      O    O265    17.37200   -1.08200  -20.58000
      O    O266    18.29100    0.78200  -19.92200
      N    N267    12.10100   -1.67600  -18.31700
      C    C268    11.02600   -2.65000  -18.51400
      C    C269     9.63100   -2.02900  -18.50600
      O    O270     8.66800   -2.57600  -19.08200
      C    C271    11.07500   -3.76700  -17.46200
      N    N272     9.47000   -0.87300  -17.88900
      C    C273     8.16600   -0.23000  -17.76300
      C    C274     8.07400    0.95400  -18.69600
      O    O275     7.16800    1.78500  -18.52700
      C    C276     7.89700    0.15300  -16.29500
      C    C277     7.65800   -1.11100  -15.46800
      O    O278     6.51600   -1.58500  -15.40900
      N    N279     8.69300   -1.64700  -14.84000
      N    N280     8.97000    1.06100  -19.70900
      C    C281     8.79800    2.02700  -20.80800
      C    C282     9.55800    3.30800  -20.64800
      O    O283     9.35200    4.23200  -21.41800
      N    N284    10.47700    3.40100  -19.68000
      C    C285    11.12500    4.65800  -19.38500
      C    C286    12.05100    5.22800  -20.43500
      O    O287    12.26000    6.44600  -20.48700
      N    N288    12.64300    4.35700  -21.29200
      C    C289    13.55000    4.88400  -22.32000
      C    C290    12.84300    5.78800  -23.31000
      O    O291    13.48900    6.61100  -23.97400
      C    C292    14.18500    3.71100  -23.07100
      C    C293    15.18400    2.89700  -22.22200
      C    C294    15.84600    1.86000  -23.13600
      C    C295    16.23200    3.78600  -21.57500
      N    N296    11.52500    5.70700  -23.39900
      C    C297    10.76500    6.62500  -24.25800
      C    C298    10.87000    8.04900  -23.75100
      O    O299    10.68200    8.99500  -24.50800
      C    C300     9.30700    6.18900  -24.25600
      C    C301     8.19500    7.17000  -24.01200
      C    C302     6.84000    6.46000  -24.21400
      N    N303     5.88500    7.41200  -24.80200
      C    C304     5.62200    7.26900  -26.10600
      N    N305     6.26100    6.27400  -26.72700
      N    N306     4.78200    8.07500  -26.73500
      N    N307    11.15100    8.18700  -22.43900
      C    C308    11.22300    9.53700  -21.89200
      C    C309    12.65200   10.00800  -21.71000
      O    O310    12.96500   11.16600  -21.99900
      C    C311    10.55400    9.54000  -20.52000
      C    C312     9.08600    9.20900  -20.58400
      C    C313     8.59800    8.12400  -19.85200
      C    C314     8.23400    9.96600  -21.35500
      C    C315     7.26800    7.79900  -19.90500
      C    C316     6.87800    9.63000  -21.39000
      C    C317     6.40300    8.56200  -20.65800
      O    O318     5.07300    8.20300  -20.67400
      N    N319    13.54600    9.16000  -21.20100
      C    C320    14.89100    9.62400  -20.90500
      C    C321    15.79200    8.41700  -20.64500
      O    O322    15.25600    7.32700  -20.40800
      C    C323    14.89900   10.51000  -19.66100
      N    N324    17.10400    8.55100  -20.72300
      C    C325    17.96000    7.34400  -20.57600
      C    C326    17.87600    6.67800  -19.21400
      O    O327    18.03700    5.45800  -19.11300
      C    C328    19.37400    7.93600  -20.80800
      C    C329    19.11900    9.11500  -21.70400
      C    C330    17.88900    9.75800  -21.10300
      N    N331    17.62200    7.46200  -18.17300
      C    C332    17.51200    6.93200  -16.80000
      C    C333    16.39700    7.70800  -16.14000
      O    O334    16.06300    8.81300  -16.55600
      C    C335    18.76700    7.13400  -15.97500
      C    C336    20.03700    6.56600  -16.54800
      C    C337    21.19200    6.69900  -15.52800
      N    N338    21.31900    8.08100  -15.05700
      C    C339    22.11800    9.02300  -15.59200
      N    N340    22.16100   10.26100  -15.08500
      N    N341    22.87400    8.75000  -16.65600
      N    N342    15.86500    7.16700  -15.04600
      C    C343    14.74500    7.85800  -14.35100
      C    C344    15.13700    9.26200  -13.90600
      O    O345    14.29800   10.16900  -13.97800
      C    C346    14.28500    7.02900  -13.16700
      N    N347    16.36900    9.44800  -13.43200
      C    C348    16.73200   10.75000  -12.86900
      C    C349    16.84800   11.82300  -13.95000
      O    O350    16.85500   13.03300  -13.59400
      C    C351    18.04600   10.67300  -12.04800
      C    C352    19.15400   10.19400  -12.96400
      O    O353    19.15800    9.02500  -13.41700
      O    O354    20.07500   11.00900  -13.23400
      N    N355    16.91100   11.38200  -15.20900
      C    C356    17.02400   12.34600  -16.32800
      C    C357    15.66400   12.68000  -16.91200
      O    O358    15.54700   13.51200  -17.80700
      C    C359    17.95500   11.78700  -17.40700
      C    C360    19.41300   11.55100  -16.95700
      C    C361    20.16800   10.80800  -18.07100
      C    C362    19.99000   12.88800  -16.56600
      N    N363    14.61400   12.03500  -16.43600
      C    C364    13.22800   12.25300  -16.83000
      C    C365    12.58500   13.23200  -15.86800
      O    O366    13.03000   13.37500  -14.74500
      C    C367    12.42300   10.96100  -16.80400
      N    N368    11.53000   13.90400  -16.33100
      C    C369    10.85100   14.84200  -15.39700
      C    C370    10.06500   14.05900  -14.34500
      O    O371     9.77300   12.88000  -14.50100
      C    C372     9.89600   15.75300  -16.18100
      O    O373     8.85300   14.89300  -16.65400
      C    C374    10.63600   16.39000  -17.34200
      N    N375     9.68600   14.73300  -13.26400
      C    C376     8.76500   14.14800  -12.29200
      C    C377     7.54200   13.53000  -12.94500
      O    O378     7.12100   12.40200  -12.64700
      C    C379     8.32600   15.25400  -11.30100
      C    C380     7.15600   14.85700  -10.39100
      C    C381     6.80600   15.96900   -9.38000
      N    N382     5.56700   15.69000   -8.65000
      C    C383     4.35600   16.02300   -9.11800
      N    N384     4.22300   16.62100  -10.28300
      N    N385     3.30200   15.73100   -8.36100
      N    N386     6.92900   14.23100  -13.91500
      C    C387     5.70000   13.70100  -14.51300
      C    C388     5.97800   12.42000  -15.27900
      O    O389     5.18100   11.47500  -15.25700
      C    C390     5.15800   14.82800  -15.39900
      C    C391     4.83100   16.04700  -14.56600
      C    C392     5.92200   17.03800  -14.20600
      O    O393     7.14700   16.95900  -14.55900
      O    O394     5.49100   18.02400  -13.51300
      N    N395     7.11000   12.39000  -15.98500
      C    C396     7.46700   11.17000  -16.73700
      C    C397     7.78500   10.04000  -15.77600
      O    O398     7.41000    8.88400  -16.01400
      C    C399     8.71200   11.44700  -17.65400
      C    C400     8.29700   12.42900  -18.75000
      C    C401     9.47400   13.03000  -19.48000
      O    O402    10.61000   13.03100  -18.95800
      O    O403     9.24300   13.49000  -20.61300
      N    N404     8.55600   10.35200  -14.68400
      C    C405     8.84500    9.30200  -13.70500
      C    C406     7.55400    8.77800  -13.09400
      O    O407     7.41400    7.54500  -12.89900
      C    C408     9.76300    9.87900  -12.60900
      C    C409    11.18100   10.08800  -13.18900
      C    C410    12.06900   10.70300  -12.09300
      O    O411    12.22800   10.06600  -11.03900
      N    N412    12.57500   11.90500  -12.28000
      N    N413     6.59800    9.67600  -12.79500
      C    C414     5.31100    9.21900  -12.26100
      C    C415     4.60000    8.35300  -13.27100
      O    O416     4.00700    7.32300  -12.87500
      C    C417     4.44400   10.43600  -11.86000
      C    C418     5.05800   11.03100  -10.59400
      C    C419     2.97200   10.05800  -11.68600
      C    C420     4.45400   12.38600  -10.21500
      N    N421     4.61000    8.68000  -14.56100
      C    C422     3.93700    7.87000  -15.58300
      C    C423     4.50700    6.45200  -15.57400
      O    O424     3.77000    5.43900  -15.60200
      C    C425     4.10600    8.50900  -16.95900
      N    N426     5.83000    6.34600  -15.51700
      C    C427     6.42400    5.00000  -15.49400
      C    C428     6.14400    4.28900  -14.18800
      O    O429     5.95300    3.06000  -14.13900
      C    C430     7.94800    5.10700  -15.77100
      C    C431     8.62800    3.74100  -15.72300
      C    C432     8.22400    5.75900  -17.13800
      N    N433     6.14300    5.08300  -13.08000
      C    C434     5.82600    4.51700  -11.78200
      C    C435     4.40500    3.94900  -11.74300
      O    O436     4.19400    2.96600  -11.07000
      C    C437     5.99300    5.55200  -10.66600
      N    N438     3.46100    4.58700  -12.42500
      C    C439     2.08300    4.05200  -12.46800
      C    C440     2.03400    2.69300  -13.13900
      O    O441     1.37500    1.76000  -12.68200
      C    C442     1.13600    5.03500  -13.17400
      C    C443     0.83300    6.37000  -12.50800
      C    C444     0.00700    6.36900  -11.23700
      O    O445    -0.22300    7.50000  -10.73800
      O    O446    -0.35400    5.26700  -10.76800
      N    N447     2.74100    2.58100  -14.26600
      C    C448     2.80600    1.30200  -14.95400
      C    C449     3.47800    0.27200  -14.05300
      O    O450     3.04500   -0.87200  -13.89000
      C    C451     3.58700    1.50900  -16.27900
      C    C452     3.94100    0.14900  -16.88800
      C    C453     2.80900    2.36800  -17.26800
      N    N454     4.57100    0.66600  -13.41000
      C    C455     5.31600   -0.21900  -12.49800
      C    C456     4.45700   -0.68600  -11.32300
      O    O457     4.41400   -1.85200  -10.96000
      C    C458     6.57200    0.50800  -11.95200
      O    O459     7.39800    0.92400  -13.04000
      C    C460     7.40000   -0.47100  -11.09800
      N    N461     3.71400    0.24300  -10.73600
      C    C462     2.84300   -0.12000   -9.61100
      C    C463     1.77200   -1.07600  -10.09900
      O    O464     1.38400   -1.96900   -9.34400
      C    C465     2.23200    1.13900   -9.01100
      C    C466     1.21100    0.90600   -7.87700
      C    C467    -0.20500    0.92400   -8.44100
      N    N468    -1.22600    0.53000   -7.49700
      C    C469    -1.54300   -0.68000   -7.05700
      N    N470    -0.90400   -1.79200   -7.42800
      N    N471    -2.57000   -0.78300   -6.20600
      N    N472     1.22600   -0.85100  -11.29700
      C    C473     0.14700   -1.74700  -11.75300
      C    C474     0.70600   -3.12600  -11.96700
      O    O475     0.07200   -4.11500  -11.64300
      C    C476    -0.48200   -1.13200  -12.98000
      C    C477    -1.52300   -1.85000  -13.83400
      C    C478    -2.33700   -0.87100  -14.67200
      C    C479    -0.89200   -2.82200  -14.82900
      N    N480     1.89500   -3.25100  -12.54300
      C    C481     2.45300   -4.56000  -12.88300
      C    C482     2.97600   -5.21100  -11.61900
      O    O483     2.88500   -6.43200  -11.44500
      C    C484     3.52600   -4.36100  -13.94800
      C    C485     2.99200   -3.84900  -15.28600
      C    C486     4.07600   -3.66300  -16.38300
      N    N487     4.71400   -4.94100  -16.71800
      C    C488     5.93000   -5.24600  -16.27600
      N    N489     6.65200   -4.37900  -15.52100
      N    N490     6.47600   -6.42300  -16.59000
      N    N491     3.53900   -4.45600  -10.68400
      C    C492     4.36500   -5.08600   -9.64000
      C    C493     3.84400   -4.86500   -8.23500
      O    O494     4.30300   -5.52500   -7.30400
      C    C495     5.78300   -4.51800   -9.83200
      C    C496     6.79100   -5.00200   -8.80600
      C    C497     7.54200   -6.26100   -9.20000
      O    O498     7.17700   -6.97600  -10.14200
      N    N499     8.61800   -6.54000   -8.45800
      N    N500     2.91500   -3.93000   -8.03200
      C    C501     2.35100   -3.65700   -6.73800
      C    C502     3.03500   -2.52500   -5.99300
      O    O503     4.19700   -2.18100   -6.22400
      N    N504     2.25800   -1.96000   -5.03900
      C    C505     2.86000   -0.99900   -4.10500
      C    C506     3.98300   -1.61500   -3.29200
      O    O507     4.87500   -0.90200   -2.83600
      C    C508     1.78100   -0.49600   -3.16300
      C    C509     0.85800    0.52500   -3.75600
      C    C510    -0.49600    0.40400   -3.82300
      C    C511     1.19000    1.77900   -4.32800
      N    N512    -1.02000    1.52500   -4.42000
      C    C513    -0.01100    2.38500   -4.74300
      C    C514     2.41400    2.45800   -4.55700
      C    C515    -0.06000    3.62800   -5.36000
      C    C516     2.33900    3.69600   -5.16300
      C    C517     1.13300    4.26800   -5.55300
      N    N518     3.97800   -2.92300   -3.06200
      C    C519     5.04700   -3.54100   -2.27900
      C    C520     6.42100   -3.42200   -2.90000
      O    O521     7.41000   -3.72300   -2.22500
      N    N522     6.53000   -2.96800   -4.17000
      C    C523     7.88600   -2.66700   -4.69400
      C    C524     8.55500   -1.51600   -3.94600
      O    O525     9.80800   -1.43300   -3.98100
      C    C526     7.79000   -2.34800   -6.16800
      N    N527     7.77500   -0.67000   -3.29900
      C    C528     8.26700    0.34800   -2.37600
      C    C529     7.71300   -0.01200   -1.00100
      O    O530     6.79000    0.62800   -0.49200
      C    C531     7.84300    1.73600   -2.80000
      C    C532     8.20900    2.19600   -4.16700
      C    C533     9.28600    2.90000   -4.51800
      C    C534     7.47700    2.02000   -5.40200
      N    N535     9.33800    3.18600   -5.85400
      C    C536     8.22400    2.64900   -6.43600
      C    C537     6.27300    1.38100   -5.73300
      C    C538     7.81700    2.66600   -7.77000
      C    C539     5.89000    1.41700   -7.07800
      C    C540     6.63000    2.04100   -8.08600
      N    N541     8.20500   -1.09800   -0.39500
      C    C542     7.53400   -1.67000    0.79200
      C    C543     7.41000   -0.70300    1.96700
      O    O544     6.38700   -0.73400    2.65900
      C    C545     8.41100   -2.85100    1.21600
      C    C546     9.73400   -2.59400    0.55900
      C    C547     9.39900   -1.86800   -0.74200
      N    N548     8.38000    0.16700    2.18100
      C    C549     8.30800    1.17600    3.22800
      C    C550     7.78900    2.48700    2.66600
      O    O551     6.81900    3.05500    3.21400
      C    C552     9.68000    1.40600    3.90800
      C    C553     9.55900    2.58600    4.86300
      C    C554    10.13200    0.13600    4.62000
      N    N555     8.36100    3.00400    1.55900
      C    C556     7.90900    4.36000    1.17700
      C    C557     6.49600    4.37500    0.67800
      O    O558     5.82400    5.43000    0.86200
      C    C559     8.88000    4.98500    0.14300
      S    S560    10.52700    5.25800    0.90000
      N    N561     5.92900    3.34700    0.09000
      C    C562     4.50900    3.35900   -0.28000
      C    C563     3.64000    3.32700    0.96100
      O    O564     2.55800    3.90800    0.97700
      C    C565     4.15800    2.17600   -1.20200
      N    N566     4.10400    2.69200    2.03700
      C    C567     3.39900    2.75300    3.31200
      C    C568     3.40100    4.17100    3.85700
      O    O569     2.35800    4.63700    4.35300
      C    C570     4.01000    1.75600    4.29100
      N    N571     4.52400    4.86900    3.75500
      C    C572     4.63500    6.25500    4.24400
      C    C573     3.65500    7.14100    3.48500
      O    O574     3.17300    8.18700    3.97200
      C    C575     6.13300    6.68600    4.22600
      N    N576     3.24200    6.82000    2.26400
      C    C577     2.34300    7.57300    1.41700
      C    C578     0.90000    7.12600    1.65700
      O    O579    -0.00300    7.69000    1.05600
      C    C580     2.69100    7.42100   -0.06000
      N    N581     0.67000    6.13700    2.50700
      C    C582    -0.67100    5.69800    2.86600
      C    C583    -1.17200    4.56400    1.99700
      O    O584    -2.31400    4.09300    2.14700
      N    N585    -0.37000    4.04400    1.06600
      C    C586    -0.86200    3.05500    0.12000
      C    C587    -0.61600    1.64800    0.61400
      O    O588    -1.05700    0.70200   -0.07900
      C    C589    -0.20600    3.27200   -1.23600
      N    N590     0.05300    1.33500    1.75300
      C    C591     0.18200   -0.16900    1.64900
      C    C592    -1.00300   -1.01500    2.08900
      O    O593    -1.70100   -1.62300    1.21900
      C    C594     1.62700   -0.46100    2.16700
      C    C595     2.32300   -0.31900    0.79500
      C    C596     3.53400   -1.19300    0.58000
      N    N597     3.20100   -2.61100    0.73400
      C    C598     3.64000   -3.37300    1.72300
      N    N599     4.47900   -2.88100    2.64900
      N    N600     3.24100   -4.65300    1.74800
