# CIF file generated by openbabel 2.3.2, see http://openbabel.sf.net
data_I
_chemical_name_common '../proteins/pdb/4FX4.pdb'
_cell_length_a 146.585
_cell_length_b 146.585
_cell_length_c 53.887
_cell_angle_alpha 90
_cell_angle_beta 90
_cell_angle_gamma 120
loop_
    _atom_site_type_symbol
    _atom_site_label
    _atom_site_Cartn_x
    _atom_site_Cartn_y
    _atom_site_Cartn_z
      P    P1   -12.26700   46.87800  -43.08400
      O    O2   -12.89000   45.99400  -44.10400
      O    O3   -12.28900   46.45300  -41.66100
      O    O4   -10.74700   47.22900  -43.48300
      C    C5   -10.14400   48.48300  -43.08800
      C    C6    -8.71000   48.27100  -42.62700
      O    O7    -8.30100   49.27700  -41.64200
      C    C8    -8.54100   46.96100  -41.89000
      O    O9    -7.17800   46.58200  -41.88100
      C    C10    -9.03600   47.38000  -40.50300
      C    C11    -8.29400   48.71300  -40.33100
      N    N12    -8.90100   49.66400  -39.39000
      C    C13   -10.23100   49.77400  -39.11000
      N    N14   -10.52200   50.70900  -38.23400
      C    C15    -9.29200   51.26600  -37.90600
      C    C16    -8.92000   52.31100  -37.02300
      N    N17    -9.79800   53.00300  -36.28500
      N    N18    -7.61000   52.61200  -36.93300
      C    C19    -6.73800   51.91500  -37.67700
      N    N20    -6.96600   50.91600  -38.53700
      C    C21    -8.28000   50.62900  -38.61300
      P    P22    -6.77500   45.02700  -41.77400
      O    O23    -6.43600   44.54500  -43.13300
      O    O24    -7.82500   44.33800  -40.98700
      O    O25    -5.44700   45.03700  -40.88000
      C    C26    -4.44700   46.02900  -41.06700
      C    C27    -3.95300   46.49500  -39.70900
      O    O28    -4.98800   47.28600  -39.06800
      C    C29    -3.60500   45.37900  -38.72600
      O    O30    -2.42700   45.74900  -38.02800
      C    C31    -4.81300   45.36400  -37.79500
      C    C32    -5.13100   46.84800  -37.73500
      N    N33    -6.48700   47.11600  -37.26500
      C    C34    -7.61500   46.40500  -37.59600
      N    N35    -8.69900   46.85800  -37.03300
      C    C36    -8.26100   47.93700  -36.27700
      C    C37    -8.99600   48.81600  -35.44900
      O    O38   -10.21300   48.81000  -35.21700
      N    N39    -8.17700   49.77600  -34.86000
      C    C40    -6.81800   49.86900  -35.05100
      N    N41    -6.19600   50.86300  -34.39900
      N    N42    -6.11700   49.05100  -35.82700
      C    C43    -6.90200   48.11100  -36.40600
      P    P44    -1.59600   44.65900  -37.18600
      O    O45    -0.44000   44.23400  -38.00600
      O    O46    -2.54700   43.64800  -36.67400
      O    O47    -1.06000   45.49500  -35.93400
      C    C48    -0.66800   46.84900  -36.12100
      C    C49    -0.95700   47.65400  -34.86800
      O    O50    -2.39200   47.90900  -34.78800
      C    C51    -0.56300   46.94500  -33.57700
      O    O52     0.16800   47.82100  -32.71700
      C    C53    -1.90300   46.53200  -32.96200
      C    C54    -2.86600   47.59400  -33.49000
      N    N55    -4.24900   47.12900  -33.58400
      C    C56    -4.73100   46.15600  -34.41100
      N    N57    -6.02000   45.93600  -34.29200
      C    C58    -6.41600   46.83000  -33.31200
      C    C59    -7.67100   47.09500  -32.72500
      N    N60    -8.78900   46.44800  -33.06800
      N    N61    -7.72900   48.04700  -31.77600
      C    C62    -6.60500   48.68900  -31.44000
      N    N63    -5.37000   48.53000  -31.91800
      C    C64    -5.33800   47.57400  -32.86400
      P    P65     0.97000   47.22600  -31.45600
      O    O66     2.33500   47.79300  -31.47300
      O    O67     0.79000   45.75500  -31.45000
      O    O68     0.19200   47.83100  -30.19700
      C    C69     0.23800   49.23200  -29.95400
      C    C70    -0.79600   49.62500  -28.92100
      O    O71    -2.11200   49.39700  -29.48100
      C    C72    -0.79500   48.80700  -27.63300
      O    O73     0.24800   49.19600  -26.68600
      C    C74    -2.22900   48.99400  -27.13900
      C    C75    -3.02600   49.09800  -28.43900
      N    N76    -3.78000   47.85400  -28.77400
      C    C77    -5.12700   47.80800  -28.49000
      O    O78    -5.72900   48.73800  -27.98200
      N    N79    -5.74500   46.63100  -28.82800
      C    C80    -5.16000   45.52000  -29.40600
      O    O81    -5.80100   44.50900  -29.67000
      C    C82    -3.74800   45.63400  -29.67500
      C    C83    -3.01000   44.48700  -30.29900
      C    C84    -3.13300   46.78000  -29.35200
      P    P85     0.11700   50.54100  -25.80500
      O    O86    -0.36600   51.62700  -26.68300
      O    O87     1.38200   50.72000  -25.06200
      O    O88    -1.01800   50.19600  -24.73200
      C    C89    -1.87300   51.25600  -24.29900
      C    C90    -3.08100   50.72600  -23.54800
      O    O91    -3.81100   49.78900  -24.37600
      C    C92    -2.74500   49.97100  -22.26600
      O    O93    -3.25900   50.67900  -21.14400
      C    C94    -3.41600   48.60800  -22.43900
      C    C95    -4.46000   48.88600  -23.51200
      N    N96    -4.86000   47.67500  -24.28700
      C    C97    -6.18500   47.30000  -24.38200
      O    O98    -7.10000   47.91000  -23.85900
      N    N99    -6.40500   46.16700  -25.12300
      C    C100    -5.45800   45.39000  -25.76500
      O    O101    -5.75600   44.38800  -26.40800
      C    C102    -4.09600   45.84100  -25.62200
      C    C103    -2.97200   45.08800  -26.26600
      C    C104    -3.86800   46.94200  -24.90100
      P    P105    -2.95600   50.15900  -19.65500
      O    O106    -3.05800   51.31600  -18.73800
      O    O107    -1.71200   49.36400  -19.69800
      O    O108    -4.17300   49.17000  -19.35700
      C    C109    -5.48300   49.66000  -19.60400
      C    C110    -6.49400   48.53600  -19.70700
      O    O111    -6.24000   47.72900  -20.88100
      C    C112    -6.46600   47.55100  -18.54700
      O    O113    -7.41100   47.96100  -17.56800
      C    C114    -6.85700   46.21700  -19.18900
      C    C115    -6.93600   46.51700  -20.68500
      N    N116    -6.34100   45.44400  -21.53200
      C    C117    -7.17200   44.43300  -22.02400
      O    O118    -8.37700   44.45800  -21.74600
      N    N119    -6.63400   43.45500  -22.79100
      C    C120    -5.33000   43.46600  -23.06600
      N    N121    -4.84700   42.47800  -23.82700
      C    C122    -4.46500   44.48700  -22.57100
      C    C123    -5.00700   45.44800  -21.81400
      P    P124    -7.49300   47.20200  -16.15400
      O    O125    -7.74500   48.21800  -15.10600
      O    O126    -6.32000   46.30600  -16.04600
      O    O127    -8.79300   46.28300  -16.30000
      C    C128   -10.03100   46.89400  -16.64400
      C    C129   -11.09400   45.85900  -16.97000
      O    O130   -10.64500   45.02000  -18.06900
      C    C131   -11.46100   44.91300  -15.83200
      O    O132   -12.86900   44.69200  -15.86400
      C    C133   -10.65900   43.65500  -16.16900
      C    C134   -10.69700   43.65600  -17.69300
      N    N135    -9.56700   42.97000  -18.31600
      C    C136    -8.24300   43.31400  -18.20400
      N    N137    -7.44100   42.53400  -18.87000
      C    C138    -8.28300   41.60800  -19.46600
      C    C139    -7.97600   40.51600  -20.30900
      O    O140    -6.86400   40.14300  -20.70500
      N    N141    -9.12000   39.82700  -20.69800
      C    C142   -10.39900   40.15400  -20.31900
      N    N143   -11.37500   39.36900  -20.79600
      N    N144   -10.70200   41.17700  -19.52700
      C    C145    -9.59700   41.86200  -19.13800
      P    P146   -13.62300   44.05500  -14.59400
      O    O147   -14.55700   45.07100  -14.06200
      O    O148   -12.60100   43.45900  -13.70400
      O    O149   -14.47500   42.86400  -15.23200
      C    C150   -13.94400   42.22800  -16.38300
      C    C151   -14.75700   41.01900  -16.78900
      O    O152   -13.89600   40.16200  -17.57700
      C    C153   -15.20500   40.13100  -15.64200
      O    O154   -16.19700   39.23600  -16.11700
      C    C155   -13.90100   39.40600  -15.34500
      C    C156   -13.44600   39.09200  -16.76600
      N    N157   -11.97100   38.96100  -16.89300
      C    C158   -11.47000   38.03400  -17.77700
      O    O159   -12.17600   37.32200  -18.46500
      N    N160   -10.10300   37.97300  -17.83000
      C    C161    -9.21100   38.73200  -17.09700
      O    O162    -7.99700   38.60300  -17.21500
      C    C163    -9.80200   39.68100  -16.18700
      C    C164    -8.92000   40.55500  -15.34600
      C    C165   -11.13900   39.75200  -16.12500
      P    P166   -16.95400   38.24800  -15.10000
      O    O167   -18.40600   38.34700  -15.36400
      O    O168   -16.43700   38.50600  -13.73700
      O    O169   -16.46300   36.79900  -15.55600
      C    C170   -16.72900   36.36400  -16.88500
      C    C171   -16.10200   35.00600  -17.13600
      O    O172   -14.66500   35.15800  -17.26100
      C    C173   -16.34200   33.98400  -16.02900
      O    O174   -16.68700   32.72300  -16.59600
      C    C175   -15.01200   33.93600  -15.27900
      C    C176   -13.99700   34.30200  -16.35600
      N    N177   -12.82600   35.00200  -15.83100
      C    C178   -12.83200   36.12600  -15.04100
      N    N179   -11.64100   36.54400  -14.71400
      C    C180   -10.78600   35.63800  -15.32700
      C    C181    -9.37200   35.58200  -15.32600
      O    O182    -8.57300   36.34500  -14.76600
      N    N183    -8.89500   34.50600  -16.06900
      C    C184    -9.68700   33.59800  -16.73000
      N    N185    -9.04300   32.62800  -17.39400
      N    N186   -11.01400   33.63900  -16.73900
      C    C187   -11.49700   34.68200  -16.01900
      P    P188   -17.12200   31.50000  -15.64800
      O    O189   -18.00600   30.60800  -16.43100
      O    O190   -17.58700   32.06200  -14.36000
      O    O191   -15.74900   30.73300  -15.37900
      C    C192   -15.02800   30.23000  -16.49300
      C    C193   -13.65200   29.75100  -16.07400
      O    O194   -12.81800   30.87400  -15.68500
      C    C195   -13.64000   28.78900  -14.88900
      O    O196   -13.02200   27.57400  -15.29200
      C    C197   -12.82000   29.51900  -13.82500
      C    C198   -11.93100   30.39100  -14.70100
      N    N199   -11.28900   31.53300  -13.99000
      C    C200    -9.91400   31.64300  -13.99400
      O    O201    -9.17800   30.85100  -14.55700
      N    N202    -9.42500   32.72800  -13.30900
      C    C203   -10.15800   33.68900  -12.63600
      O    O204    -9.62900   34.62800  -12.04800
      C    C205   -11.58800   33.51200  -12.67200
      C    C206   -12.48000   34.49400  -11.97600
      C    C207   -12.07800   32.45700  -13.33700
      P    P208   -13.03300   26.29700  -14.31700
      O    O209   -13.03300   25.08000  -15.16000
      O    O210   -14.10300   26.49900  -13.31500
      O    O211   -11.62600   26.39200  -13.56100
      C    C212   -10.42100   26.34300  -14.31500
      C    C213    -9.20600   26.60300  -13.44000
      O    O214    -9.14500   28.00400  -13.07000
      C    C215    -9.17200   25.81800  -12.13000
      O    O216    -8.08500   24.90000  -12.15900
      C    C217    -8.97700   26.88200  -11.04600
      C    C218    -8.46600   28.07800  -11.83700
      N    N219    -8.76600   29.35800  -11.20900
      C    C220    -9.99100   29.82300  -10.82500
      N    N221    -9.95600   31.01600  -10.28100
      C    C222    -8.61600   31.35700  -10.31200
      C    C223    -7.91600   32.50100   -9.88400
      N    N224    -8.50900   33.55500   -9.31800
      N    N225    -6.58000   32.51700  -10.06200
      C    C226    -5.98700   31.46200  -10.63200
      N    N227    -6.53800   30.33300  -11.07200
      C    C228    -7.86700   30.34500  -10.88200
      P    P229    -7.92600   23.79700  -11.00100
      O    O230    -7.59500   22.50600  -11.64300
      O    O231    -9.10700   23.89100  -10.11300
      O    O232    -6.65400   24.30500  -10.17400
      C    C233    -5.42700   24.51200  -10.85900
      C    C234    -4.55400   25.53400  -10.15200
      O    O235    -5.28100   26.77500   -9.97200
      C    C236    -4.06300   25.13700   -8.76000
      O    O237    -2.65300   24.97000   -8.79200
      C    C238    -4.45400   26.30900   -7.86000
      C    C239    -4.67700   27.42100   -8.87500
      N    N240    -5.54500   28.47900   -8.38000
      C    C241    -6.91600   28.48400   -8.30800
      N    N242    -7.40100   29.58700   -7.80800
      C    C243    -6.27900   30.35900   -7.53100
      C    C244    -6.17200   31.65800   -6.97800
      O    O245    -7.08200   32.41200   -6.60800
      N    N246    -4.84300   32.06200   -6.86900
      C    C247    -3.75600   31.30900   -7.24600
      N    N248    -2.55100   31.86800   -7.06500
      N    N249    -3.83900   30.09200   -7.76700
      C    C250    -5.12800   29.68800   -7.88100
      P    P251    -1.87400   24.42900   -7.49500
      O    O252    -0.65500   23.73000   -7.95400
      O    O253    -2.85400   23.72900   -6.63200
      O    O254    -1.42400   25.76500   -6.74000
      C    C255    -0.39800   26.57800   -7.29100
      C    C256    -0.05100   27.71000   -6.34300
      O    O257    -1.18600   28.60300   -6.20200
      C    C258     0.31800   27.27800   -4.92600
      O    O259     1.48800   27.96900   -4.52100
      C    C260    -0.88300   27.70100   -4.08700
      C    C261    -1.31300   28.94900   -4.84100
      N    N262    -2.72200   29.32900   -4.59700
      C    C263    -2.99700   30.54000   -3.95700
      O    O264    -2.05500   31.26500   -3.60400
      N    N265    -4.29100   30.88500   -3.73800
      C    C266    -5.26800   30.06800   -4.13700
      N    N267    -6.53100   30.44300   -3.90300
      C    C268    -5.00000   28.82900   -4.78900
      C    C269    -3.72600   28.50600   -5.00100
      P    P270     2.26500   27.52600   -3.18800
      O    O271     3.68600   27.90100   -3.34300
      O    O272     1.89400   26.12400   -2.88900
      O    O273     1.62400   28.45300   -2.05600
      C    C274     1.96000   29.83200   -2.03200
      C    C275     1.21400   30.55400   -0.92600
      O    O276    -0.17000   30.72900   -1.29700
      C    C277     1.15700   29.82300    0.40900
      O    O278     2.28800   30.18100    1.19600
      C    C279    -0.15000   30.31700    1.03000
      C    C280    -0.88400   31.01200   -0.11600
      N    N281    -2.27700   30.54000   -0.30400
      C    C282    -3.32300   31.34700    0.08400
      O    O283    -3.17600   32.44900    0.58300
      N    N284    -4.56300   30.80700   -0.13900
      C    C285    -4.85000   29.57500   -0.69500
      O    O286    -6.00100   29.18500   -0.85200
      C    C287    -3.70700   28.78500   -1.07800
      C    C288    -3.89100   27.42700   -1.69100
      C    C289    -2.48900   29.29900   -0.86600
      P    P290     2.57900   29.42700    2.58600
      O    O291     4.00100   29.64600    2.93500
      O    O292     2.05100   28.05000    2.47700
      O    O293     1.66400   30.21000    3.63600
      C    C294     1.76900   31.61400    3.76400
      C    C295     0.59900   32.13900    4.57400
      O    O296    -0.64400   31.82500    3.90300
      C    C297     0.47400   31.55300    5.97700
      O    O298     0.40100   32.63200    6.87600
      C    C299    -0.83900   30.77500    5.94800
      C    C300    -1.60600   31.54800    4.89000
      N    N301    -2.68600   30.79600    4.26300
      C    C302    -2.55900   29.64200    3.54200
      N    N303    -3.69600   29.18200    3.08300
      C    C304    -4.63100   30.10000    3.53100
      C    C305    -6.02800   30.17700    3.37600
      N    N306    -6.74300   29.27300    2.69700
      N    N307    -6.66700   31.22100    3.94700
      C    C308    -5.94600   32.12200    4.62600
      N    N309    -4.63100   32.15500    4.83900
      C    C310    -4.02800   31.10500    4.25900
      P    P311     0.78400   32.43000    8.42000
      O    O312     2.01700   33.20300    8.68900
      O    O313     0.75800   30.98100    8.71200
      O    O314    -0.43200   33.12400    9.18800
      C    C315    -1.14000   34.16000    8.52000
      C    C316    -2.42300   34.48700    9.25800
      O    O317    -3.55700   33.87100    8.59900
      C    C318    -2.46200   34.01600   10.70500
      O    O319    -3.08900   35.02700   11.47900
      C    C320    -3.28100   32.72800   10.63300
      C    C321    -4.24900   33.02800    9.49600
      N    N322    -4.67400   31.84000    8.71100
      C    C323    -6.02000   31.69500    8.36400
      O    O324    -6.82800   32.55800    8.73000
      N    N325    -6.39900   30.61300    7.64000
      C    C326    -5.49300   29.71000    7.26800
      N    N327    -5.91700   28.66300    6.55600
      C    C328    -4.11500   29.84000    7.60800
      C    C329    -3.75200   30.91200    8.32200
      P    P330    -3.27600   34.83800   13.06300
      O    O331    -3.12000   36.16500   13.69900
      O    O332    -2.41500   33.71300   13.49600
      O    O333    -4.80400   34.38800   13.20500
      C    C334    -5.83600   35.22000   12.67700
      C    C335    -7.21400   34.64800   12.96000
      O    O336    -7.43900   33.48600   12.11800
      C    C337    -7.44600   34.19500   14.39700
      O    O338    -8.75700   34.57300   14.81800
      C    C339    -7.27400   32.67600   14.33200
      C    C340    -7.71700   32.34600   12.90800
      N    N341    -7.01300   31.20900   12.31900
      C    C342    -5.68600   30.90400   12.44500
      N    N343    -5.32600   29.81800   11.79900
      C    C344    -6.49900   29.38200   11.20500
      C    C345    -6.79300   28.27800   10.38000
      N    N346    -5.87900   27.38000   10.00200
      N    N347    -8.06400   28.13400    9.96000
      C    C348    -8.97800   29.03500   10.34100
      N    N349    -8.82200   30.10900   11.11100
      C    C350    -7.54800   30.22900   11.51500
      P    P351    -9.20800   34.36600   16.34800
      O    O352   -10.23000   35.38800   16.66600
      O    O353    -7.98400   34.25400   17.17600
      O    O354    -9.92400   32.94100   16.33300
      C    C355   -11.04300   32.75800   15.48400
      C    C356   -11.42100   31.29300   15.44800
      O    O357   -10.46900   30.55800   14.64500
      C    C358   -11.41600   30.61500   16.81400
      O    O359   -12.75800   30.37700   17.22500
      C    C360   -10.62700   29.32000   16.59700
      C    C361   -10.54500   29.22000   15.07700
      N    N362    -9.35900   28.46900   14.57300
      C    C363    -9.52100   27.52700   13.55100
      O    O364   -10.65000   27.33900   13.08200
      N    N365    -8.43600   26.84900   13.10400
      C    C366    -7.23700   27.08300   13.63700
      N    N367    -6.19700   26.39100   13.16400
      C    C368    -7.05000   28.03700   14.67900
      C    C369    -8.12700   28.70100   15.11400
      P    P370   -13.06000   29.69200   18.64700
      O    O371   -14.40800   30.11900   19.08300
      O    O372   -11.89100   29.92700   19.52300
      O    O373   -13.10300   28.13200   18.30400
      C    C374   -13.89600   27.71500   17.20600
      C    C375   -13.40700   26.39000   16.66200
      O    O376   -12.01900   26.47400   16.27300
      C    C377   -13.45200   25.24600   17.66100
      O    O378   -14.70900   24.61200   17.49200
      C    C379   -12.27700   24.35300   17.25700
      C    C380   -11.54400   25.14900   16.17700
      N    N381   -10.08700   25.14300   16.30800
      C    C382    -9.30800   25.94100   17.11500
      N    N383    -8.03000   25.69800   17.01000
      C    C384    -7.95300   24.67500   16.07300
      C    C385    -6.82600   23.99400   15.55100
      O    O386    -5.62700   24.16600   15.82200
      N    N387    -7.19900   23.02400   14.62200
      C    C388    -8.49400   22.75000   14.24900
      N    N389    -8.66100   21.78100   13.34000
      N    N390    -9.55600   23.37800   14.72900
      C    C391    -9.21100   24.32400   15.63300
      P    P392   -15.14100   23.39800   18.45000
      O    O393   -16.59500   23.51500   18.70400
      O    O394   -14.20200   23.35900   19.59200
      O    O395   -14.85800   22.10400   17.55800
      C    C396   -15.11700   22.12600   16.15800
      C    C397   -14.82400   20.76600   15.55300
      O    O398   -13.40600   20.64400   15.26900
      C    C399   -15.19300   19.60000   16.46000
      O    O400   -15.78500   18.56200   15.69500
      C    C401   -13.86200   19.16400   17.06900
      C    C402   -12.82500   19.61500   16.04600
      N    N403   -11.62900   20.14400   16.69000
      C    C404   -11.58900   21.03300   17.72700
      N    N405   -10.37400   21.34000   18.11700
      C    C406    -9.56000   20.59800   17.27800
      C    C407    -8.16100   20.47700   17.17700
      N    N408    -7.30700   21.13600   17.96600
      N    N409    -7.67400   19.65000   16.23100
      C    C410    -8.52900   18.99100   15.44100
      N    N411    -9.86100   19.02300   15.44100
      C    C412   -10.31700   19.85300   16.39200
      P    P413   -16.27400   17.21000   16.41200
      O    O414   -17.33500   16.60900   15.57400
      O    O415   -16.54800   17.51900   17.83400
      O    O416   -14.98400   16.26900   16.34800
      C    C417   -14.42100   15.98200   15.07500
      C    C418   -13.06300   15.31900   15.20900
      O    O419   -12.13500   16.25800   15.80200
      C    C420   -13.03900   14.07300   16.08900
      O    O421   -12.71300   12.94000   15.28600
      C    C422   -11.96800   14.35200   17.14800
      C    C423   -11.20300   15.54300   16.58000
      N    N424   -10.68400   16.45400   17.59400
      C    C425   -11.41400   17.25500   18.42600
      N    N426   -10.68300   17.98100   19.24100
      C    C427    -9.38200   17.63000   18.91600
      C    C428    -8.13500   18.04600   19.42000
      N    N429    -8.00700   18.94700   20.39800
      N    N430    -7.02700   17.50100   18.87700
      C    C431    -7.16300   16.60000   17.89700
      N    N432    -8.28000   16.13000   17.34100
      C    C433    -9.36400   16.69100   17.90100
      P    P434   -12.85900   11.45400   15.88300
      O    O435   -13.02700   10.52200   14.74500
      O    O436   -13.87300   11.49100   16.96200
      O    O437   -11.43900   11.18800   16.56400
      C    C438   -10.26600   11.37100   15.79000
      C    C439    -9.05100   11.43700   16.69200
      O    O440    -9.08900   12.64400   17.48700
      C    C441    -8.95000   10.30500   17.70900
      O    O442    -7.99600    9.35200   17.25200
      C    C443    -8.51800   10.99300   19.01100
      C    C444    -8.20700   12.42000   18.56400
      N    N445    -8.43600   13.47300   19.59200
      C    C446    -7.35500   14.09900   20.17700
      O    O447    -6.19700   13.83600   19.90900
      N    N448    -7.68300   15.05500   21.10400
      C    C449    -8.95300   15.44000   21.49300
      O    O450    -9.14600   16.31000   22.33600
      C    C451   -10.03500   14.74700   20.84000
      C    C452   -11.45700   15.07800   21.17900
      C    C453    -9.72800   13.81200   19.93200
      P    P454    -7.72100    8.01200   18.09600
      O    O455    -7.39800    6.92800   17.14200
      O    O456    -8.83400    7.83700   19.05700
      O    O457    -6.40300    8.36200   18.92500
      C    C458    -5.28200    8.89700   18.23500
      C    C459    -4.19400    9.28800   19.21500
      O    O460    -4.56900   10.50000   19.92000
      C    C461    -3.91800    8.23400   20.27900
      O    O462    -2.51900    8.06700   20.42900
      C    C463    -4.55500    8.82100   21.53500
      C    C464    -4.35800   10.31200   21.30300
      N    N465    -5.33000   11.13800   22.06500
      C    C466    -4.86500   12.09300   22.97600
      O    O467    -3.64500   12.23900   23.12700
      N    N468    -5.76800   12.83400   23.66500
      C    C469    -7.07500   12.64300   23.47100
      N    N470    -7.92600   13.39800   24.17300
      C    C471    -7.56700   11.67100   22.54900
      C    C472    -6.66700   10.94800   21.87700
      P    P473    -1.93000    6.71000   21.05700
      O    O474    -1.09000    6.05900   20.02800
      O    O475    -3.05500    5.96400   21.66400
      O    O476    -0.99300    7.22700   22.24500
      C    C477    -1.55600    8.05400   23.25300
      C    C478    -0.48700    8.72800   24.09300
      O    O479    -1.07200    9.86900   24.76600
      C    C480     0.10600    7.86900   25.20100
      O    O481     1.42400    8.31000   25.51000
      C    C482    -0.85500    8.12300   26.35800
      C    C483    -1.26100    9.57800   26.13700
      N    N484    -2.68300    9.84500   26.47700
      C    C485    -2.97600   10.48500   27.66000
      O    O486    -2.12500   10.85000   28.45000
      N    N487    -4.31500   10.68300   27.88100
      C    C488    -5.36100   10.31300   27.05600
      O    O489    -6.53300   10.53600   27.34200
      C    C490    -4.98100    9.64800   25.83700
      C    C491    -6.03200    9.19900   24.86600
      C    C492    -3.67800    9.44800   25.60900
