# CIF file generated by openbabel 2.3.2, see http://openbabel.sf.net
data_I
_chemical_name_common '../proteins/pdb/4KL7.pdb'
_cell_length_a 42.427
_cell_length_b 51.595
_cell_length_c 66.594
_cell_angle_alpha 90
_cell_angle_beta 104.06
_cell_angle_gamma 90
_space_group_name_H-M_alt 'P 1 21 1'
_space_group_name_Hall 'P 2yb'
loop_
    _symmetry_equiv_pos_as_xyz
    'x,y,z'
    '-x,1/2+y,-z'
loop_
    _atom_site_type_symbol
    _atom_site_label
    _atom_site_Cartn_x
    _atom_site_Cartn_y
    _atom_site_Cartn_z
      N    N1    -1.36600   14.11300   -4.26700
      C    C2    -0.32100   13.51400   -5.17500
      C    C3     0.53800   12.52100   -4.39000
      O    O4     1.53700   12.88900   -3.79100
      C    C5     0.52600   14.61900   -5.76200
      O    O6     0.92900   15.51400   -4.74400
      N    N7     0.11900   11.26300   -4.39000
      C    C8     0.76400   10.22500   -3.59800
      C    C9     2.24100   10.07900   -3.93000
      O    O10     3.06100    9.78800   -3.06600
      C    C11     0.05400    8.86700   -3.77700
      C    C12     0.62600    7.83500   -2.80900
      C    C13     0.08400    8.37700   -5.25100
      C    C14    -0.26700    6.61200   -2.65400
      N    N15     2.58800   10.29700   -5.18500
      C    C16     3.99100   10.14900   -5.61400
      C    C17     4.92100   11.15200   -5.00800
      O    O18     6.09400   10.85900   -4.84300
      C    C19     4.12600   10.17700   -7.14400
      C    C20     3.37600    9.14100   -7.76700
      C    C21     2.18900    9.29400   -8.44200
      C    C22     3.68100    7.75100   -7.78100
      N    N23     1.75700    8.08200   -8.88900
      C    C24     2.64100    7.11000   -8.47800
      C    C25     4.72300    6.96800   -7.24100
      C    C26     2.62200    5.72100   -8.67400
      C    C27     4.70200    5.61000   -7.42600
      C    C28     3.66300    4.98600   -8.15800
      N    N29     4.42200   12.33800   -4.65600
      C    C30     5.25600   13.30000   -3.94700
      C    C31     5.60600   12.84100   -2.52600
      O    O32     6.71500   13.08500   -2.04800
      C    C33     4.58700   14.66200   -3.95300
      C    C34     4.51200   15.23100   -5.32700
      O    O35     5.57700   15.39000   -5.95800
      O    O36     3.39100   15.50400   -5.80200
      N    N37     4.68300   12.15200   -1.87600
      C    C38     4.94800   11.54000   -0.56800
      C    C39     5.96700   10.38100   -0.72100
      O    O40     6.91600   10.24800    0.06900
      C    C41     3.61700   11.08600    0.11500
      N    N42     5.82100    9.55900   -1.77000
      C    C43     6.80500    8.50400   -2.04100
      C    C44     8.15100    9.11300   -2.32400
      O    O45     9.15500    8.62600   -1.75700
      C    C46     6.33800    7.55500   -3.17100
      C    C47     5.07400    6.84700   -2.68200
      C    C48     7.41700    6.57700   -3.56600
      C    C49     4.44600    5.93200   -3.67500
      N    N50     8.19500   10.20000   -3.10800
      C    C51     9.46000   10.82700   -3.43400
      C    C52    10.13500   11.52700   -2.26800
      O    O53    11.36500   11.55400   -2.19200
      C    C54     9.30900   11.80000   -4.63000
      N    N55     9.34400   12.05700   -1.33400
      C    C56     9.93200   12.63100   -0.12800
      C    C57    10.62900   11.53500    0.66400
      O    O58    11.76200   11.71800    1.09400
      N    N59     9.98600   10.37600    0.76700
      C    C60    10.51600    9.17800    1.44300
      C    C61    11.74300    8.56800    0.74500
      O    O62    12.75100    8.23900    1.38600
      C    C63     9.42200    8.12000    1.58900
      S    S64     9.89700    6.66400    2.47800
      N    N65    11.67900    8.45500   -0.57200
      C    C66    12.74000    7.77700   -1.32100
      C    C67    13.97300    8.63900   -1.53900
      O    O68    15.09300    8.13300   -1.47900
      C    C69    12.22800    7.31200   -2.70500
      C    C70    11.16200    6.22800   -2.65600
      C    C71    11.70900    4.86900   -2.23800
      O    O72    12.96300    4.66100   -2.19900
      O    O73    10.88600    3.96200   -2.00100
      N    N74    13.75600    9.92700   -1.79200
      C    C75    14.78100   10.82500   -2.31000
      C    C76    14.71100   12.25800   -1.75000
      O    O77    15.33000   13.15600   -2.29600
      C    C78    14.69900   10.87700   -3.90400
      N    N79    14.00000   12.45200   -0.63600
      C    C80    13.83200   13.79400   -0.05600
      C    C81    13.28600   14.82300   -1.04900
      O    O82    13.56600   16.03000   -0.97000
      N    N83    12.46900   14.35800   -1.99600
      C    C84    11.81300   15.26300   -2.92900
      C    C85    12.71400   15.73100   -4.05400
      O    O86    12.37400   16.66000   -4.76200
      N    N87    13.86200   15.07700   -4.21600
      C    C88    14.77600   15.42400   -5.29100
      C    C89    14.62100   14.47900   -6.46500
      O    O90    15.14100   13.37100   -6.50000
      C    C91    16.24200   15.43800   -4.83000
      C    C92    17.19400   15.86300   -5.95400
      O    O93    16.76400   16.25300   -7.06100
      N    N94    18.51400   15.78000   -5.67000
      N    N95    13.84000   14.92200   -7.43200
      C    C96    13.52700   14.06900   -8.57500
      C    C97    14.67100   13.86100   -9.53600
      O    O98    14.58700   12.96500  -10.37300
      C    C99    12.25900   14.56600   -9.31600
      C    C100    10.98400   14.46500   -8.49700
      C    C101    10.53900   15.34600   -7.54600
      C    C102     9.97000   13.44300   -8.57500
      N    N103     9.34100   14.94800   -7.04200
      C    C104     8.98700   13.75700   -7.62900
      C    C105     9.85200   12.25200   -9.29700
      C    C106     7.84500   12.98000   -7.45300
      C    C107     8.71800   11.46700   -9.11400
      C    C108     7.74100   11.82800   -8.17600
      N    N109    15.71900   14.67900   -9.42700
      C    C110    16.91800   14.53200  -10.22200
      C    C111    18.03700   13.77200   -9.52800
      O    O112    19.16300   13.71800  -10.02900
      C    C113    17.41300   15.90400  -10.70400
      N    N114    17.74000   13.11600   -8.41100
      C    C115    18.81700   12.54200   -7.63500
      C    C116    19.48300   11.37200   -8.36600
      O    O117    18.83500   10.52800   -9.00900
      C    C118    18.35700   12.14300   -6.22800
      C    C119    19.57300   12.08000   -5.27700
      C    C120    17.63600   10.80600   -6.21700
      C    C121    19.20200   12.01900   -3.82600
      N    N122    20.80400   11.29300   -8.20900
      C    C123    21.61800   10.27600   -8.84300
      C    C124    22.85500   10.09300   -8.00900
      O    O125    23.92100   10.65900   -8.30200
      C    C126    21.98600   10.71000  -10.27300
      C    C127    22.97500    9.77100  -10.95900
      O    O128    23.06600    8.57000  -10.64600
      N    N129    23.69100   10.31600  -11.96500
      N    N130    22.72000    9.27500   -6.96400
      C    C131    23.77400    9.17400   -5.96000
      C    C132    24.81400    8.11500   -6.24200
      O    O133    25.92400    8.16700   -5.65100
      C    C134    23.20000    8.88700   -4.54200
      O    O135    22.55000    7.61900   -4.56000
      C    C136    22.26700   10.02800   -4.10300
      N    N137    24.50100    7.17500   -7.12300
      C    C138    25.39000    6.08700   -7.41400
      C    C139    25.02500    4.80000   -6.69800
      O    O140    25.80200    3.83500   -6.72500
      N    N141    23.86100    4.79300   -6.04100
      C    C142    23.41600    3.63100   -5.24200
      C    C143    22.64000    2.55300   -6.01000
      O    O144    22.02500    1.67300   -5.39900
      C    C145    22.58400    4.11800   -4.06000
      C    C146    21.26500    4.75500   -4.49800
      O    O147    21.02400    4.90400   -5.69700
      N    N148    20.44300    5.19800   -3.54100
      N    N149    22.64200    2.62300   -7.33800
      C    C150    21.85900    1.70600   -8.11300
      C    C151    20.46100    2.15200   -8.44200
      O    O152    19.74100    1.45400   -9.18000
      N    N153    20.06900    3.30900   -7.89100
      C    C154    18.69600    3.81200   -8.03600
      C    C155    18.75200    5.24800   -8.51400
      O    O156    19.72400    5.96800   -8.29500
      C    C157    17.90300    3.73900   -6.72700
      C    C158    17.84900    2.35100   -6.14900
      C    C159    18.67800    2.00800   -5.09600
      C    C160    17.02800    1.38100   -6.68700
      C    C161    18.64500    0.74100   -4.53900
      C    C162    16.98600    0.08800   -6.13600
      C    C163    17.80900   -0.19700   -5.04500
      O    O164    17.80500   -1.46700   -4.48500
      N    N165    17.66500    5.67200   -9.13900
      C    C166    17.67100    6.92700   -9.84700
      C    C167    16.37700    7.67900   -9.68400
      O    O168    15.28800    7.13000   -9.81100
      C    C169    17.89900    6.69900  -11.34900
      C    C170    19.19100    5.95700  -11.66800
      C    C171    19.21200    4.55500  -11.72900
      C    C172    20.38000    6.65400  -11.85800
      C    C173    20.38200    3.89200  -11.97500
      C    C174    21.55500    5.99300  -12.09300
      C    C175    21.55200    4.61000  -12.17700
      O    O176    22.69400    3.86100  -12.37400
      N    N177    16.50500    8.98000   -9.45900
      C    C178    15.37300    9.88900   -9.43000
      C    C179    14.51700    9.85400   -8.19000
      O    O180    14.85800    9.22000   -7.18500
      N    N181    13.36800   10.52300   -8.29900
      C    C182    12.51800   10.81400   -7.16200
      C    C183    11.95300    9.60000   -6.46100
      O    O184    11.73700    9.62500   -5.22200
      N    N185    11.65100    8.55800   -7.22700
      C    C186    11.12400    7.32700   -6.65600
      C    C187    12.10700    6.15200   -6.73000
      O    O188    11.72900    4.97900   -6.53800
      C    C189     9.71400    6.98100   -7.18000
      C    C190     8.78100    8.19000   -6.93200
      C    C191     9.73600    6.56500   -8.67400
      N    N192    13.37100    6.49100   -6.98900
      C    C193    14.46700    5.53100   -6.86000
      C    C194    14.22100    4.26400   -7.65000
      O    O195    14.24700    3.15100   -7.13200
      C    C196    14.77100    5.24200   -5.37500
      C    C197    15.32100    6.44400   -4.65500
      C    C198    16.79000    6.71500   -4.91600
      O    O199    17.17600    7.58500   -5.73900
      N    N200    17.62400    5.98800   -4.22300
      N    N201    14.01700    4.46100   -8.95000
      C    C202    13.99500    3.37200   -9.89200
      C    C203    15.38800    2.78100  -10.08800
      O    O204    16.36000    3.51500  -10.27900
      C    C205    13.58600    3.87700  -11.29500
      C    C206    12.09700    3.93200  -11.55300
      C    C207    11.42900    5.16000  -11.55800
      C    C208    11.39400    2.79000  -11.89400
      C    C209    10.07200    5.22700  -11.88900
      C    C210    10.01000    2.84500  -12.19400
      C    C211     9.36000    4.07100  -12.18100
      N    N212    15.48800    1.45000  -10.10000
      C    C213    16.69000    0.85400  -10.67500
      C    C214    16.53700    0.88000  -12.19400
      O    O215    15.42300    1.07800  -12.76200
      C    C216    16.98000   -0.54700  -10.11500
      C    C217    15.84800   -1.52500  -10.31000
      O    O218    15.41000   -1.74300  -11.43000
      O    O219    15.49200   -2.22000   -9.33000
      N    N220    17.65200    0.72800  -12.89300
      C    C221    17.63800    0.91400  -14.32900
      C    C222    16.80400   -0.15500  -15.01600
      O    O223    16.06200    0.13200  -15.95000
      C    C224    19.06400    0.98100  -14.87200
      C    C225    19.11600    1.34500  -16.34000
      C    C226    18.70800    2.78900  -16.62900
      O    O227    18.74100    3.65500  -15.73800
      N    N228    18.37100    3.07100  -17.89000
      N    N229    16.86800   -1.38900  -14.55200
      C    C230    16.10400   -2.43800  -15.21800
      C    C231    14.60600   -2.18300  -15.17700
      O    O232    13.88900   -2.40500  -16.15500
      N    N233    14.14700   -1.68600  -14.04400
      C    C234    12.73500   -1.39500  -13.85300
      C    C235    12.32100   -0.17000  -14.66400
      O    O236    11.23700   -0.14200  -15.23500
      C    C237    12.40900   -1.18600  -12.37300
      O    O238    12.85600   -2.33500  -11.62900
      C    C239    10.92500   -0.99400  -12.16500
      N    N240    13.19800    0.82600  -14.70600
      C    C241    12.93300    1.99400  -15.57200
      C    C242    12.71700    1.52900  -17.00400
      O    O243    11.73300    1.86500  -17.63100
      C    C244    14.08800    2.98700  -15.49200
      C    C245    13.94500    4.19500  -16.37300
      C    C246    14.65000    4.49100  -17.48800
      C    C247    13.03100    5.28400  -16.17200
      N    N248    14.26300    5.72400  -17.98200
      C    C249    13.24900    6.22000  -17.20100
      C    C250    12.03300    5.55000  -15.22200
      C    C251    12.49400    7.38400  -17.33000
      C    C252    11.29500    6.71500  -15.33900
      C    C253    11.54800    7.64300  -16.38900
      N    N254    13.61600    0.70400  -17.50200
      C    C255    13.52300    0.27100  -18.88500
      C    C256    12.34000   -0.64700  -19.12100
      O    O257    11.63700   -0.52900  -20.13800
      C    C258    14.84700   -0.35200  -19.35300
      C    C259    16.00600    0.65600  -19.27500
      C    C260    17.34100    0.16200  -19.86100
      O    O261    17.41300   -0.97700  -20.35800
      O    O262    18.32300    0.93200  -19.81500
      N    N263    12.14000   -1.59100  -18.20400
      C    C264    11.06600   -2.57000  -18.35700
      C    C265     9.67000   -1.94700  -18.42500
      O    O266     8.76800   -2.51200  -19.04600
      C    C267    11.14300   -3.60600  -17.25500
      N    N268     9.49800   -0.76900  -17.80300
      C    C269     8.19300   -0.10400  -17.70700
      C    C270     8.05600    1.09600  -18.65700
      O    O271     7.18300    1.93300  -18.54000
      C    C272     7.88400    0.24300  -16.26100
      C    C273     7.69800   -0.98000  -15.43900
      O    O274     8.63400   -1.43000  -14.73300
      N    N275     6.50700   -1.48400  -15.46100
      N    N276     8.91200    1.09100  -19.66200
      C    C277     8.84600    2.04800  -20.77300
      C    C278     9.58700    3.37700  -20.63600
      O    O279     9.39900    4.28400  -21.43500
      N    N280    10.47400    3.46700  -19.65500
      C    C281    11.15300    4.70900  -19.31300
      C    C282    12.02000    5.30100  -20.40100
      O    O283    12.13300    6.52300  -20.49200
      N    N284    12.61400    4.45600  -21.24700
      C    C285    13.47100    4.98100  -22.29500
      C    C286    12.76400    5.86600  -23.31400
      O    O287    13.43400    6.61500  -24.03700
      C    C288    14.14000    3.83500  -22.99500
      C    C289    15.08900    2.99600  -22.15000
      C    C290    15.76200    1.89700  -23.02100
      C    C291    16.13900    3.84500  -21.43400
      N    N292    11.44200    5.79200  -23.36700
      C    C293    10.65100    6.67200  -24.21700
      C    C294    10.77900    8.09700  -23.75900
      O    O295    10.65900    9.00900  -24.57900
      C    C296     9.18700    6.26000  -24.20400
      C    C297     8.24800    6.93000  -25.15800
      C    C298     6.88400    6.16700  -25.32400
      N    N299     6.35600    6.43900  -26.66100
      C    C300     6.62700    5.72700  -27.75400
      N    N301     7.37500    4.62800  -27.70800
      N    N302     6.12500    6.11900  -28.91200
      N    N303    11.00900    8.31400  -22.44800
      C    C304    11.14600    9.64200  -21.88700
      C    C305    12.57300   10.10700  -21.70800
      O    O306    12.86400   11.27700  -21.96300
      C    C307    10.44800    9.73300  -20.53200
      C    C308     9.00200    9.42200  -20.57400
      C    C309     8.49700    8.34200  -19.88300
      C    C310     8.12000   10.18500  -21.34100
      C    C311     7.15600    8.03200  -19.91700
      C    C312     6.75500    9.87900  -21.37400
      C    C313     6.28300    8.78800  -20.65600
      O    O314     4.95200    8.40700  -20.65600
      N    N315    13.44200    9.25400  -21.18200
      C    C316    14.83800    9.63900  -20.91500
      C    C317    15.71600    8.42900  -20.66300
      O    O318    15.22500    7.33500  -20.39700
      C    C319    14.93800   10.61600  -19.67500
      N    N320    17.04900    8.60500  -20.74300
      C    C321    17.94400    7.46200  -20.58700
      C    C322    17.82100    6.78700  -19.21400
      O    O323    17.96600    5.57800  -19.11800
      C    C324    19.33600    8.04900  -20.84800
      C    C325    19.08200    9.25000  -21.71600
      C    C326    17.75500    9.80200  -21.22400
      N    N327    17.55900    7.56900  -18.18300
      C    C328    17.41300    7.07600  -16.82600
      C    C329    16.31900    7.88000  -16.14500
      O    O330    15.99700    8.98700  -16.58000
      C    C331    18.70100    7.28900  -16.04400
      C    C332    19.98400    6.76100  -16.61300
      C    C333    21.11600    6.92600  -15.57700
      N    N334    21.26100    8.31900  -15.15100
      C    C335    22.04900    9.23500  -15.71700
      N    N336    22.04700   10.46400  -15.22000
      N    N337    22.85400    8.94400  -16.74800
      N    N338    15.82300    7.39800  -15.02500
      C    C339    14.71700    8.08500  -14.32100
      C    C340    15.10400    9.51100  -13.91300
      O    O341    14.27400   10.41400  -13.98400
      C    C342    14.26700    7.29300  -13.06500
      N    N343    16.33000    9.70600  -13.44600
      C    C344    16.72100   11.01300  -12.92600
      C    C345    16.84000   12.07300  -14.03700
      O    O346    16.93400   13.26700  -13.72300
      C    C347    18.05800   10.92400  -12.16000
      C    C348    19.19700   10.45900  -13.02800
      O    O349    19.14100    9.27300  -13.49200
      O    O350    20.16200   11.25500  -13.24400
      N    N351    16.85400   11.63900  -15.28700
      C    C352    16.95600   12.55500  -16.44600
      C    C353    15.57900   12.86700  -17.01800
      O    O354    15.43500   13.72800  -17.89500
      C    C355    17.88100   11.97600  -17.52900
      C    C356    19.33500   11.69500  -17.13700
      C    C357    20.02100   10.82500  -18.21000
      C    C358    20.14200   12.96900  -16.82900
      N    N359    14.56400   12.20300  -16.50400
      C    C360    13.19500   12.43200  -16.90400
      C    C361    12.58000   13.43900  -15.92700
      O    O362    13.03000   13.59900  -14.77600
      C    C363    12.40900   11.09200  -16.88400
      N    N364    11.53000   14.11100  -16.37100
      C    C365    10.83600   15.05200  -15.46100
      C    C366    10.00300   14.30700  -14.41100
      O    O367     9.68800   13.10900  -14.57800
      C    C368     9.86400   15.95100  -16.21100
      O    O369     9.32300   16.91200  -15.33300
      C    C370     8.80600   15.17600  -16.82800
      N    N371     9.66100   14.98800  -13.32000
      C    C372     8.74600   14.42900  -12.32200
      C    C373     7.51000   13.75700  -12.96100
      O    O374     7.17900   12.63600  -12.66900
      C    C375     8.31000   15.50500  -11.33700
      C    C376     7.13700   15.15300  -10.47000
      C    C377     6.76100   16.30300   -9.49800
      N    N378     5.53400   15.94200   -8.79400
      C    C379     4.29400   15.96400   -9.31600
      N    N380     4.05800   16.38000  -10.56400
      N    N381     3.26800   15.54000   -8.58700
      N    N382     6.86800   14.43200  -13.89300
      C    C383     5.66300   13.92000  -14.52800
      C    C384     5.94700   12.63600  -15.33200
      O    O385     5.13800   11.70300  -15.35600
      C    C386     5.09300   15.03300  -15.40900
      C    C387     4.79200   16.36200  -14.62400
      C    C388     6.03400   17.24900  -14.09400
      O    O389     7.21200   17.27000  -14.63200
      O    O390     5.79600   17.98300  -13.07000
      N    N391     7.08200   12.60600  -16.01700
      C    C392     7.47000   11.42600  -16.78400
      C    C393     7.80500   10.28300  -15.81200
      O    O394     7.44300    9.11300  -16.05900
      C    C395     8.66500   11.78400  -17.67700
      C    C396     8.30300   12.69700  -18.82400
      C    C397     9.49900   13.28100  -19.56500
      O    O398    10.65100   13.27700  -19.07100
      O    O399     9.27900   13.73000  -20.72600
      N    N400     8.54900   10.58200  -14.75100
      C    C401     8.86600    9.53700  -13.76500
      C    C402     7.57200    8.97300  -13.16500
      O    O403     7.44000    7.73900  -13.00300
      C    C404     9.79200   10.09300  -12.68100
      C    C405    11.13900   10.47100  -13.18100
      C    C406    12.04400   10.99900  -12.10000
      O    O407    12.21400   10.35200  -11.07500
      N    N408    12.59700   12.19000  -12.29300
      N    N409     6.61700    9.84000  -12.84900
      C    C410     5.31700    9.40700  -12.36800
      C    C411     4.56300    8.52000  -13.36000
      O    O412     4.00600    7.50100  -12.98500
      C    C413     4.43600   10.63500  -11.89800
      C    C414     5.03400   11.20100  -10.58800
      C    C415     3.00400   10.19300  -11.75100
      C    C416     4.35800   12.45400  -10.09300
      N    N417     4.56400    8.88100  -14.64200
      C    C418     3.91100    8.03700  -15.64100
      C    C419     4.49300    6.62800  -15.65200
      O    O420     3.76200    5.63200  -15.72200
      C    C421     3.98600    8.68700  -17.03000
      N    N422     5.81900    6.54200  -15.64100
      C    C423     6.45700    5.23300  -15.59900
      C    C424     6.13100    4.50200  -14.27100
      O    O425     5.92200    3.28200  -14.23700
      C    C426     7.97700    5.30700  -15.85100
      C    C427     8.60600    3.88900  -15.77500
      C    C428     8.27100    5.94600  -17.18900
      N    N429     6.08400    5.25900  -13.17500
      C    C430     5.74100    4.69300  -11.85900
      C    C431     4.32600    4.13800  -11.80300
      O    O432     4.11400    3.10000  -11.19000
      C    C433     5.94400    5.73300  -10.75900
      N    N434     3.38400    4.78900  -12.47800
      C    C435     1.99400    4.29500  -12.56900
      C    C436     1.94900    2.93600  -13.27800
      O    O437     1.28600    2.01300  -12.80900
      C    C438     1.09300    5.30600  -13.29500
      C    C439     0.84800    6.64400  -12.54300
      C    C440    -0.06200    6.58600  -11.32100
      O    O441    -0.37200    7.70400  -10.79800
      O    O442    -0.40800    5.48100  -10.83700
      N    N443     2.64900    2.79200  -14.40800
      C    C444     2.73200    1.52400  -15.09700
      C    C445     3.40100    0.48600  -14.21300
      O    O446     2.97300   -0.69100  -14.16100
      C    C447     3.51400    1.68800  -16.43800
      C    C448     3.83700    0.33000  -17.02900
      C    C449     2.71300    2.54700  -17.39200
      N    N450     4.47100    0.88000  -13.56400
      C    C451     5.22100   -0.05400  -12.68500
      C    C452     4.31700   -0.54200  -11.55300
      O    O453     4.27900   -1.73100  -11.23300
      C    C454     6.46300    0.62900  -12.11200
      O    O455     7.32600    1.10300  -13.17000
      C    C456     7.24400   -0.31000  -11.19600
      N    N457     3.62100    0.38300  -10.92400
      C    C458     2.73500    0.00200   -9.83000
      C    C459     1.63200   -0.94000  -10.30200
      O    O460     1.26800   -1.85600   -9.57500
      C    C461     2.17900    1.26200   -9.18400
      C    C462     1.29800    1.00900   -8.01700
      C    C463    -0.15400    0.98500   -8.47000
      N    N464    -0.97400    0.60500   -7.33100
      C    C465    -1.82700   -0.40300   -7.32300
      N    N466    -2.06800   -1.08500   -8.43900
      N    N467    -2.48500   -0.69200   -6.21500
      N    N468     1.10300   -0.72500  -11.50200
      C    C469     0.07800   -1.59300  -12.03800
      C    C470     0.63500   -3.01200  -12.30100
      O    O471    -0.00800   -4.05800  -11.94900
      C    C472    -0.59400   -0.95600  -13.26000
      C    C473    -1.76800   -0.04100  -13.01700
      C    C474    -2.12800    0.76900  -14.23800
      C    C475    -3.00400   -0.86700  -12.58700
      N    N476     1.83500   -3.06900  -12.87800
      C    C477     2.46300   -4.33600  -13.19500
      C    C478     3.02300   -5.07000  -11.97300
      O    O479     2.92300   -6.31200  -11.93300
      C    C480     3.55800   -4.15300  -14.23900
      C    C481     2.99400   -3.77400  -15.62300
      C    C482     4.08900   -3.66900  -16.76900
      N    N483     5.00300   -4.80800  -16.60900
      C    C484     5.91400   -5.33400  -17.38700
      N    N485     6.63100   -6.32500  -16.82900
      N    N486     6.05700   -5.01100  -18.68100
      N    N487     3.65600   -4.34900  -11.04500
      C    C488     4.47200   -4.96500   -9.97100
      C    C489     3.89500   -4.79400   -8.56700
      O    O490     4.31600   -5.51400   -7.63900
      C    C491     5.88600   -4.39000   -9.99200
      C    C492     6.54800   -4.49700  -11.32500
      C    C493     7.98200   -4.01100  -11.32000
      O    O494     8.62400   -3.93300  -10.26100
      N    N495     8.48900   -3.63500  -12.50700
      N    N496     2.95300   -3.86100   -8.40300
      C    C497     2.38000   -3.51500   -7.10400
      C    C498     3.17600   -2.46300   -6.33900
      O    O499     4.24300   -2.02000   -6.79100
      N    N500     2.65200   -2.04100   -5.18100
      C    C501     3.33400   -1.05600   -4.35400
      C    C502     4.60300   -1.61200   -3.72300
      O    O503     5.40600   -0.83400   -3.21800
      C    C504     2.41200   -0.51700   -3.25700
      C    C505     1.34800    0.37700   -3.72800
      C    C506     0.02600    0.13100   -3.68300
      C    C507     1.49600    1.67600   -4.31800
      N    N508    -0.65700    1.16700   -4.20300
      C    C509     0.20400    2.14600   -4.59800
      C    C510     2.59200    2.48800   -4.64000
      C    C511    -0.03800    3.39300   -5.20200
      C    C512     2.35400    3.73900   -5.22400
      C    C513     1.05600    4.16600   -5.51700
      N    N514     4.80600   -2.93300   -3.79100
      C    C515     6.00100   -3.56100   -3.25600
      C    C516     7.27900   -3.16000   -3.93700
      O    O517     8.35100   -3.50500   -3.47300
      N    N518     7.15400   -2.47500   -5.07600
      C    C519     8.31100   -1.82600   -5.71800
      C    C520     8.95600   -0.71400   -4.86200
      O    O521    10.12800   -0.36500   -5.07700
      C    C522     7.94000   -1.30100   -7.08200
      N    N523     8.20300   -0.18200   -3.89500
      C    C524     8.65600    0.85800   -2.94800
      C    C525     8.37000    0.39500   -1.48200
      O    O526     7.43400    0.88900   -0.85100
      C    C527     7.93300    2.17000   -3.27100
      C    C528     8.23600    2.64800   -4.68300
      C    C529     9.34200    3.31300   -5.09200
      C    C530     7.44400    2.42800   -5.85600
      N    N531     9.28500    3.54200   -6.42500
      C    C532     8.13400    3.01300   -6.93300
      C    C533     6.22000    1.80900   -6.10400
      C    C534     7.63900    2.99100   -8.23500
      C    C535     5.71000    1.81000   -7.41200
      C    C536     6.43100    2.41300   -8.45400
      N    N537     9.16000   -0.57200   -0.95200
      C    C538     8.81000   -1.35500    0.29200
      C    C539     8.33700   -0.76900    1.67200
      O    O540     7.68600   -1.47700    2.47100
      C    C541    10.07300   -2.21400    0.50700
      C    C542    11.03700   -1.91200   -0.59900
      C    C543    10.28400   -1.19800   -1.67200
      N    N544     8.73200    0.45500    1.95300
      C    C545     8.42300    1.23000    3.16400
      C    C546     7.73500    2.53100    2.73100
      O    O547     6.72100    2.95300    3.28400
      C    C548     9.72500    1.58800    3.93100
      C    C549     9.47400    2.62800    5.01300
      C    C550    10.38800    0.34000    4.48600
      N    N551     8.24800    3.12900    1.65400
      C    C552     7.78000    4.41800    1.27600
      C    C553     6.34800    4.44500    0.74200
      O    O554     5.65400    5.45700    0.91000
      C    C555     8.72300    4.99600    0.23000
      S    S556    10.35300    5.41500    0.93100
      N    N557     5.92100    3.37200    0.08400
      C    C558     4.53200    3.26000   -0.35800
      C    C559     3.58700    3.37500    0.85200
      O    O560     2.60900    4.10100    0.80800
      C    C561     4.30500    1.94600   -1.07200
      N    N562     3.91500    2.68200    1.93300
      C    C563     3.10600    2.70700    3.16000
      C    C564     3.11600    4.10600    3.78800
      O    O565     2.07800    4.63000    4.23700
      C    C566     3.66600    1.66900    4.13000
      N    N567     4.29700    4.71400    3.82400
      C    C568     4.43700    6.06800    4.38000
      C    C569     3.57600    7.08900    3.60000
      O    O570     3.09900    8.07200    4.16700
      C    C571     5.97600    6.42100    4.62300
      C    C572     6.30500    6.42500    6.25200
      C    C573     7.59000    5.75100    6.86900
      N    N574     7.41600    4.40600    7.45300
      C    C575     8.38300    3.68800    8.03500
      N    N576     9.61700    4.11600    8.03800
      N    N577     8.12500    2.47400    8.55300
      N    N578     3.33300    6.82900    2.30600
      C    C579     2.51700    7.72200    1.49000
      C    C580     1.02700    7.37400    1.55200
      O    O581     0.21700    8.01900    0.89200
      C    C582     3.01200    7.70000    0.03000
      N    N583     0.67600    6.35500    2.34400
      C    C584    -0.71300    5.91800    2.51800
      C    C585    -1.12300    4.71200    1.69900
      O    O586    -2.25500    4.27400    1.80500
      N    N587    -0.18500    4.14800    0.92900
      C    C588    -0.50700    3.28700   -0.21500
      C    C589    -1.40200    2.08300   -0.04300
      O    O590    -1.34500    1.31200    0.93300
      C    C591     0.76500    2.86100   -0.97600
      N    N592    -2.21500    1.96400   -1.08700
      C    C593    -3.05800    0.83300   -1.42000
      C    C594    -2.38600   -0.53800   -1.28200
      O    O595    -2.31000   -1.11400   -0.18600
      C    C596    -3.49600    1.00800   -2.87900
      C    C597    -4.15100    2.36000   -3.25100
      C    C598    -3.17700    3.39300   -3.78200
