# CIF file generated by openbabel 2.3.2, see http://openbabel.sf.net
data_I
_chemical_name_common '../proteins/pdb/4KMC.pdb'
_cell_length_a 60.957
_cell_length_b 60.957
_cell_length_c 59.478
_cell_angle_alpha 90
_cell_angle_beta 90
_cell_angle_gamma 90
_space_group_name_H-M_alt 'P 43 21 2'
_space_group_name_Hall 'P 4nw 2abw'
loop_
    _symmetry_equiv_pos_as_xyz
    'x,y,z'
    '-x,-y,1/2+z'
    '1/2-y,1/2+x,3/4+z'
    '1/2+y,1/2-x,1/4+z'
    '1/2-x,1/2+y,3/4-z'
    '1/2+x,1/2-y,1/4-z'
    'y,x,-z'
    '-y,-x,1/2-z'
loop_
    _atom_site_type_symbol
    _atom_site_label
    _atom_site_Cartn_x
    _atom_site_Cartn_y
    _atom_site_Cartn_z
      N    N1    26.33500   14.52500    5.04900
      C    C2    24.98800   15.03100    5.29600
      C    C3    23.96500   14.37300    4.37200
      O    O4    22.76100   14.41800    4.63600
      C    C5    24.90700   16.56500    5.13500
      O    O6    23.61000   17.02900    5.52800
      C    C7    25.15900   16.96100    3.69100
      N    N8    24.43800   13.77300    3.28400
      C    C9    23.57200   12.95300    2.44000
      C    C10    23.18000   11.70000    3.21800
      O    O11    22.01500   11.27800    3.24300
      C    C12    24.30300   12.55500    1.15800
      C    C13    23.61700   13.07600   -0.10100
      O    O14    23.04100   14.16600   -0.11000
      N    N15    23.68100   12.29200   -1.17300
      N    N16    24.18300   11.12100    3.86400
      C    C17    24.01400    9.93600    4.67600
      C    C18    23.03300   10.21600    5.81600
      O    O19    22.15500    9.41300    6.10700
      C    C20    25.38000    9.52100    5.22000
      C    C21    25.39800    8.14500    5.78600
      C    C22    25.76600    6.99500    5.14600
      C    C23    25.02000    7.76600    7.11100
      N    N24    25.64100    5.92200    5.99700
      C    C25    25.18600    6.36800    7.21100
      C    C26    24.56300    8.47500    8.22600
      C    C27    24.90600    5.66500    8.37800
      C    C28    24.28200    7.78000    9.37700
      C    C29    24.45300    6.38700    9.44700
      N    N30    23.17300   11.37900    6.43700
      C    C31    22.32500   11.77600    7.54700
      C    C32    20.87800   12.04500    7.11700
      O    O33    19.93800   11.66500    7.82000
      C    C34    22.92400   13.01000    8.21800
      O    O35    24.30000   13.12800    7.88400
      N    N36    20.70300   12.71000    5.97800
      C    C37    19.37300   12.94600    5.40700
      C    C38    18.67100   11.61000    5.17400
      O    O39    17.54300   11.39100    5.62800
      C    C40    19.49400   13.74000    4.09200
      C    C41    18.65000   15.01800    4.03600
      C    C42    19.10500   15.97600    2.92600
      N    N43    20.40700   16.57700    3.22000
      C    C44    20.58200   17.73400    3.85500
      N    N45    19.53400   18.43800    4.26500
      N    N46    21.80900   18.19000    4.07800
      N    N47    19.36700   10.71300    4.48400
      C    C48    18.88800    9.35900    4.22100
      C    C49    18.52900    8.61300    5.51300
      O    O50    17.45300    8.01400    5.62100
      C    C51    19.97100    8.59400    3.45100
      C    C52    19.52600    7.93700    2.14300
      C    C53    20.71700    7.29000    1.42800
      N    N54    21.56400    6.53500    2.35400
      C    C55    22.87800    6.70000    2.48600
      N    N56    23.52300    7.58900    1.73900
      N    N57    23.54800    5.96600    3.36500
      N    N58    19.42700    8.65900    6.49600
      C    C59    19.20200    7.96500    7.75300
      C    C60    17.95000    8.50500    8.42600
      O    O61    17.11200    7.73200    8.89700
      C    C62    20.41700    8.11300    8.68200
      C    C63    20.36100    7.25000    9.93200
      C    C64    21.00200    6.01800    9.98000
      C    C65    19.67400    7.67000   11.06500
      C    C66    20.96100    5.22400   11.13300
      C    C67    19.62100    6.88000   12.22000
      C    C68    20.26700    5.66200   12.24200
      O    O69    20.23000    4.87300   13.37300
      N    N70    17.81300    9.82700    8.46900
      C    C71    16.66200   10.43200    9.13800
      C    C72    15.36200   10.16000    8.37600
      O    O73    14.33100    9.85700    8.99100
      C    C74    16.87700   11.93300    9.34500
      C    C75    15.64600   12.69900    9.87400
      C    C76    15.13500   12.19200   11.22100
      C    C77    14.54400   13.33800   12.07500
      N    N78    13.10000   13.63000   11.85500
      N    N79    15.42300   10.25400    7.04700
      C    C80    14.28200    9.90100    6.19600
      C    C81    13.76300    8.48700    6.49800
      O    O82    12.56300    8.27300    6.63700
      C    C83    14.66200   10.02400    4.73500
      N    N84    14.67500    7.52900    6.61600
      C    C85    14.31200    6.15600    6.98000
      C    C86    13.74500    6.01100    8.40100
      O    O87    12.79300    5.25600    8.62300
      C    C88    15.50400    5.20700    6.75600
      C    C89    15.80500    4.99000    5.27300
      O    O90    14.92500    5.14800    4.42300
      N    N91    17.04600    4.62200    4.96000
      N    N92    14.33600    6.71500    9.36500
      C    C93    13.74900    6.80600   10.69700
      C    C94    12.29400    7.25100   10.65000
      O    O95    11.42900    6.64800   11.28900
      C    C96    14.51800    7.80100   11.57400
      C    C97    15.67700    7.30900   12.42200
      C    C98    16.19100    8.45200   13.28300
      C    C99    15.25000    6.12500   13.28300
      N    N100    12.02700    8.31800    9.90900
      C    C101    10.66000    8.81800    9.79900
      C    C102     9.73400    7.80700    9.12000
      O    O103     8.56300    7.68800    9.49100
      C    C104    10.61700   10.18400    9.09100
      C    C105    11.15200   11.37000    9.93200
      C    C106    10.28800   11.72700   11.15900
      O    O107     9.19800   11.14300   11.34600
      O    O108    10.70500   12.60300   11.94900
      N    N109    10.25300    7.06800    8.14100
      C    C110     9.47000    5.99800    7.52200
      C    C111     9.12200    4.91100    8.53100
      O    O112     7.99700    4.41400    8.54200
      C    C113    10.21100    5.38800    6.32800
      C    C114    10.35200    6.33400    5.13100
      C    C115    10.83500    5.57000    3.88700
      C    C116    10.86300    6.46500    2.64900
      N    N117    11.52500    5.79300    1.49700
      N    N118    10.09500    4.54600    9.36800
      C    C119     9.90300    3.52900   10.39900
      C    C120     8.93700    4.02900   11.47500
      O    O121     8.04900    3.30100   11.90400
      C    C122    11.24700    3.10200   11.03400
      C    C123    12.24900    2.39200   10.11200
      C    C124    13.39600    1.79500   10.90900
      C    C125    11.57500    1.30600    9.27400
      N    N126     9.09700    5.27800   11.88900
      C    C127     8.18400    5.87600   12.86400
      C    C128     6.74900    5.97400   12.33900
      O    O129     5.81300    6.00400   13.12200
      C    C130     8.68000    7.24400   13.27500
      N    N131     6.57800    6.00700   11.01800
      C    C132     5.26100    6.23900   10.41200
      C    C133     4.23600    5.14700   10.72000
      O    O134     3.03300    5.39900   10.70600
      C    C135     5.39000    6.36600    8.89500
      O    O136     5.54700    5.08100    8.31400
      N    N137     4.70600    3.93000   10.96600
      C    C138     3.80600    2.80300   11.14100
      C    C139     3.17100    2.30500    9.85000
      O    O140     2.49300    1.27800    9.83500
      N    N141     3.38400    3.03700    8.76400
      C    C142     2.84500    2.67100    7.46100
      C    C143     3.68100    1.52100    6.90100
      O    O144     4.82700    1.72500    6.50400
      C    C145     2.92500    3.89100    6.54100
      C    C146     2.32200    3.65200    5.17300
      O    O147     2.15500    2.48400    4.75700
      O    O148     2.02600    4.65900    4.49200
      N    N149     3.10200    0.32500    6.85100
      C    C150     3.82900   -0.87800    6.44500
      C    C151     4.48900   -0.78200    5.04300
      O    O152     5.48700   -1.44700    4.76900
      C    C153     2.91400   -2.11100    6.54700
      C    C154     1.89900   -2.11300    5.39900
      C    C155     3.71900   -3.38400    6.56200
      N    N156     3.94900    0.06900    4.17900
      C    C157     4.51000    0.28200    2.85900
      C    C158     5.82400    1.04900    2.93100
      O    O159     6.74300    0.80800    2.15200
      C    C160     3.52800    1.07100    2.00300
      C    C161     2.30300    0.27500    1.64600
      O    O162     2.38800   -0.92300    1.38500
      N    N163     1.15000    0.93600    1.62700
      N    N164     5.89300    1.99200    3.86100
      C    C165     7.09000    2.78700    4.05000
      C    C166     8.15900    1.97000    4.72800
      O    O167     9.33400    2.04700    4.36600
      C    C168     6.76900    4.03200    4.86600
      C    C169     6.01400    5.08300    4.06300
      C    C170     5.50600    6.18000    4.98400
      C    C171     5.07000    7.41400    4.21200
      N    N172     3.91400    7.14100    3.31500
      N    N173     7.74500    1.17600    5.70600
      C    C174     8.65200    0.27300    6.37900
      C    C175     9.23900   -0.68100    5.35400
      O    O176    10.41900   -1.01900    5.42300
      C    C177     7.93100   -0.52200    7.47200
      C    C178     8.85000   -1.56400    8.06000
      C    C179     7.44400    0.42400    8.56200
      N    N180     8.41300   -1.07700    4.38500
      C    C181     8.83300   -2.00100    3.34500
      C    C182     9.91500   -1.38100    2.47700
      O    O183    10.83100   -2.07100    2.05800
      C    C184     7.64200   -2.42400    2.47400
      N    N185     9.79500   -0.08300    2.21100
      C    C186    10.80900    0.67400    1.47200
      C    C187    12.15400    0.68500    2.17400
      O    O188    13.19400    0.58100    1.52400
      C    C189    10.34600    2.12100    1.25800
      C    C190     9.22800    2.22100    0.23500
      C    C191     8.67200    3.62100    0.08000
      O    O192     9.15500    4.55200    0.76300
      O    O193     7.74100    3.79200   -0.73300
      N    N194    12.13300    0.82000    3.49800
      C    C195    13.35900    0.87900    4.26900
      C    C196    14.05900   -0.46800    4.17400
      O    O197    15.26000   -0.53600    3.91200
      C    C198    13.05500    1.19000    5.74500
      C    C199    14.33100    1.35100    6.53300
      C    C200    12.22800    2.44000    5.83800
      N    N201    13.29900   -1.53700    4.39200
      C    C202    13.82300   -2.89700    4.27900
      C    C203    14.46300   -3.12700    2.90400
      O    O204    15.61300   -3.56400    2.81800
      C    C205    12.71300   -3.94000    4.48100
      C    C206    13.22600   -5.33400    4.17200
      C    C207    12.17700   -3.87300    5.89100
      N    N208    13.72700   -2.81100    1.83700
      C    C209    14.22700   -3.01500    0.47400
      C    C210    15.46200   -2.18400    0.15400
      O    O211    16.42100   -2.70100   -0.42100
      C    C212    13.13200   -2.75000   -0.56300
      C    C213    12.28000   -3.97400   -0.86700
      C    C214    11.43600   -3.77500   -2.12100
      N    N215    10.56300   -2.61400   -1.98000
      C    C216     9.30400   -2.67700   -1.56100
      N    N217     8.76400   -3.85000   -1.26100
      N    N218     8.58100   -1.57000   -1.45200
      N    N219    15.44000   -0.90500    0.52300
      C    C220    16.60100   -0.02900    0.33200
      C    C221    17.84600   -0.49700    1.08600
      O    O222    18.93500   -0.53200    0.53600
      C    C223    16.27900    1.41100    0.74400
      C    C224    15.30500    2.09000   -0.20300
      O    O225    14.98800    1.51700   -1.27100
      O    O226    14.86400    3.21100    0.12100
      N    N227    17.69700   -0.85200    2.35100
      C    C228    18.86700   -1.23700    3.13300
      C    C229    19.41000   -2.60500    2.70400
      O    O230    20.61800   -2.84000    2.69500
      C    C231    18.53900   -1.21600    4.62100
      C    C232    18.29000    0.20000    5.16100
      C    C233    18.05900    0.17600    6.67200
      C    C234    19.44900    1.12300    4.83000
      N    N235    18.50100   -3.50000    2.34200
      C    C236    18.86900   -4.83600    1.91900
      C    C237    19.65800   -4.72400    0.63000
      O    O238    20.71200   -5.34100    0.48800
      C    C239    17.59700   -5.67400    1.74700
      C    C240    17.74700   -6.98400    1.05200
      C    C241    18.88400   -7.73100    0.91700
      C    C242    16.70600   -7.71500    0.39100
      N    N243    18.61200   -8.87600    0.21100
      C    C244    17.28300   -8.89100   -0.12100
      C    C245    15.34000   -7.48400    0.18400
      C    C246    16.53800   -9.83600   -0.83400
      C    C247    14.60400   -8.42600   -0.52100
      C    C248    15.20500   -9.58600   -1.02000
      N    N249    19.16900   -3.91000   -0.29800
      C    C250    19.89300   -3.68000   -1.54000
      C    C251    21.24600   -3.04400   -1.26100
      O    O252    22.27400   -3.45600   -1.82400
      C    C253    19.08100   -2.79100   -2.48200
      C    C254    19.91100   -2.13300   -3.58300
      C    C255    20.46500   -3.15300   -4.56900
      N    N256    21.21600   -2.51000   -5.64600
      C    C257    20.74600   -2.30600   -6.87200
      N    N258    19.51900   -2.71000   -7.19100
      N    N259    21.51200   -1.70900   -7.78400
      N    N260    21.25100   -2.03300   -0.39900
      C    C261    22.50100   -1.37500   -0.05400
      C    C262    23.47200   -2.36900    0.59500
      O    O263    24.66600   -2.31500    0.32400
      C    C264    22.25800   -0.15200    0.83000
      C    C265    23.51600    0.65400    1.14900
      C    C266    23.21300    1.84300    2.06300
      N    N267    24.42000    2.54500    2.51000
      C    C268    24.94400    3.60100    1.89200
      N    N269    24.36800    4.08000    0.79400
      N    N270    26.03800    4.18200    2.37200
      N    N271    22.96400   -3.30200    1.40300
      C    C272    23.83100   -4.33800    1.97300
      C    C273    24.46800   -5.19800    0.88600
      O    O274    25.65800   -5.52600    0.94500
      C    C275    23.07400   -5.23300    2.96300
      C    C276    24.01300   -6.05400    3.84100
      O    O277    25.00700   -5.49500    4.33200
      O    O278    23.76800   -7.26000    4.03100
      N    N279    23.68300   -5.54500   -0.12700
      C    C280    24.19000   -6.38800   -1.19800
      C    C281    25.22300   -5.65100   -2.03700
      O    O282    26.22900   -6.23000   -2.44100
      C    C283    23.05000   -6.82800   -2.10700
      C    C284    22.00200   -7.70100   -1.46800
      C    C285    20.84100   -7.92300   -2.41600
      O    O286    20.48400   -7.03200   -3.19100
      N    N287    20.25500   -9.11000   -2.37100
      N    N288    24.96900   -4.37600   -2.30300
      C    C289    25.78400   -3.61500   -3.24700
      C    C290    27.04900   -3.04500   -2.58600
      O    O291    28.17000   -3.27700   -3.04800
      C    C292    24.94400   -2.48400   -3.84500
      C    C293    25.59200   -1.78100   -5.03500
      C    C294    24.56600   -1.11700   -5.93800
      O    O295    23.39600   -0.98900   -5.51600
      O    O296    24.92600   -0.72700   -7.06800
      N    N297    26.85600   -2.32600   -1.48500
      C    C298    27.93200   -1.57600   -0.83700
      C    C299    28.32500   -2.14900    0.51500
      O    O300    29.42700   -1.91100    0.98900
      C    C301    27.51000   -0.11000   -0.66900
      C    C302    27.28900    0.62100   -2.00100
      C    C303    26.61800    1.98600   -1.82700
      N    N304    27.33300    2.85300   -0.88700
      C    C305    27.13500    4.16600   -0.77000
      N    N306    26.24700    4.77700   -1.54400
      N    N307    27.83000    4.87300    0.11500
      N    N308    27.41900   -2.89700    1.13300
      C    C309    27.61300   -3.38200    2.48900
      C    C310    27.17500   -2.34400    3.52100
      O    O311    27.43900   -1.15600    3.35800
      N    N312    26.52100   -2.78300    4.59100
      C    C313    25.99200   -1.84300    5.57700
      C    C314    26.92500   -1.61700    6.74800
      O    O315    27.66500   -2.51900    7.15800
      C    C316    24.65400   -2.33100    6.12200
      C    C317    23.51200   -2.43000    5.11300
      C    C318    22.26400   -2.94100    5.83600
      C    C319    23.27200   -1.07900    4.43300
      N    N320    26.87000   -0.40900    7.30100
      C    C321    27.55600   -0.12400    8.54900
      C    C322    26.80400   -0.85800    9.64600
      O    O323    25.69700   -1.35100    9.41600
      C    C324    27.55600    1.37700    8.83400
      O    O325    26.24000    1.84700    9.09000
      N    N326    27.40500   -0.92800   10.83200
      C    C327    26.77800   -1.54100   12.00200
      C    C328    25.45100   -0.88000   12.33600
      O    O329    24.48400   -1.55200   12.68800
      C    C330    27.71600   -1.45600   13.19700
      N    N331    25.40900    0.44300   12.24000
      C    C332    24.17800    1.16700   12.50300
      C    C333    23.08200    0.86500   11.49500
      O    O334    21.91200    0.70600   11.85100
      N    N335    23.44900    0.77200   10.22300
      C    C336    22.45100    0.47600    9.20900
      C    C337    21.91200   -0.93100    9.35100
      O    O338    20.72700   -1.16800    9.13200
      C    C339    23.03000    0.67900    7.81900
      C    C340    23.16000    2.13700    7.42400
      C    C341    24.08400    2.30300    6.24200
      O    O342    25.17500    1.69700    6.28500
      O    O343    23.72500    3.01200    5.27400
      N    N344    22.78800   -1.86900    9.69700
      C    C345    22.36200   -3.24200    9.94300
      C    C346    21.32100   -3.26300   11.06400
      O    O347    20.31700   -3.97400   10.97500
      C    C348    23.56800   -4.12400   10.31400
      C    C349    24.50800   -4.43900    9.14600
      C    C350    25.73000   -5.25700    9.59700
      C    C351    26.55600   -5.77000    8.40500
      N    N352    25.79200   -6.70500    7.52700
      N    N353    21.56400   -2.47200   12.10800
      C    C354    20.61600   -2.36500   13.21400
      C    C355    19.24600   -1.87300   12.73600
      O    O356    18.21500   -2.46000   13.05800
      C    C357    21.16200   -1.42900   14.30400
      C    C358    20.31700   -1.41500   15.57100
      C    C359    20.84600   -0.45600   16.65200
      N    N360    20.30100   -0.77300   17.97100
      C    C361    19.35800   -0.05400   18.57700
      N    N362    18.86400    1.03300   17.98500
      N    N363    18.91800   -0.40300   19.78300
      N    N364    19.24000   -0.79300   11.96600
      C    C365    17.99200   -0.24600   11.44600
      C    C366    17.30000   -1.24300   10.51000
      O    O367    16.08000   -1.41600   10.56900
      C    C368    18.25400    1.07900   10.73100
      C    C369    17.06400    1.61000    9.95900
      S    S370    17.43800    3.12300    9.04700
      C    C371    17.64000    4.33400   10.34000
      N    N372    18.07500   -1.92300    9.67400
      C    C373    17.49400   -2.95600    8.82500
      C    C374    16.85000   -4.02900    9.70200
      O    O375    15.74700   -4.47500    9.42300
      C    C376    18.54300   -3.57800    7.88800
      C    C377    18.06900   -4.80000    7.11100
      C    C378    16.80800   -4.44900    6.32700
      C    C379    19.16500   -5.31200    6.12400
      N    N380    17.52700   -4.43300   10.77000
      C    C381    16.95700   -5.44500   11.66700
      C    C382    15.65500   -4.97700   12.33600
      O    O383    14.70300   -5.75200   12.49200
      C    C384    17.98200   -5.87300   12.71600
      N    N385    15.60800   -3.70900   12.72100
      C    C386    14.38700   -3.15000   13.27600
      C    C387    13.27100   -3.05900   12.24300
      O    O388    12.12400   -3.39200   12.54500
      C    C389    14.64700   -1.76600   13.84700
      C    C390    15.41800   -1.77800   15.13900
      C    C391    15.45100   -0.37000   15.71700
      C    C392    16.37800   -0.35200   16.88700
      N    N393    16.03500   -1.45400   17.86600
      N    N394    13.60400   -2.59100   11.03800
      C    C395    12.61300   -2.46600    9.97800
      C    C396    12.01600   -3.83800    9.72700
      O    O397    10.81300   -3.98000    9.51200
      C    C398    13.23800   -1.91300    8.69600
      N    N399    12.86100   -4.85600    9.75700
      C    C400    12.38000   -6.20400    9.50200
      C    C401    11.42800   -6.62600   10.62400
      O    O402    10.37300   -7.18700   10.37400
      C    C403    13.55800   -7.16500    9.37300
      C    C404    14.30200   -7.04500    8.04200
      C    C405    15.67300   -7.70600    8.12500
      N    N406    15.57400   -9.13300    8.41200
      C    C407    16.42800   -9.80100    9.17700
      N    N408    17.46000   -9.17800    9.73800
      N    N409    16.25000  -11.09400    9.38200
      N    N410    11.80200   -6.31000   11.85600
      C    C411    10.97400   -6.62300   13.02000
      C    C412     9.59700   -5.97100   12.94800
      O    O413     8.57100   -6.62600   13.14300
      C    C414    11.70300   -6.21200   14.29200
      C    C415    12.83300   -7.15500   14.65400
      C    C416    13.67300   -6.62400   15.78500
      O    O417    13.60900   -5.43800   16.11900
      N    N418    14.46700   -7.49800   16.39100
      N    N419     9.58100   -4.67900   12.65200
      C    C420     8.34100   -3.96000   12.45600
      C    C421     7.51400   -4.58500   11.33200
      O    O422     6.29000   -4.71900   11.45100
      C    C423     8.63700   -2.48700   12.13700
      C    C424     9.21500   -1.80700   13.37800
      C    C425     7.38500   -1.76400   11.68500
      C    C426     9.66200   -0.37700   13.13300
      N    N427     8.18600   -4.97900   10.24800
      C    C428     7.50200   -5.56400    9.10700
      C    C429     6.89800   -6.91500    9.47900
      O    O430     5.74700   -7.18300    9.17100
      C    C431     8.46200   -5.72700    7.91900
      C    C432     7.76200   -6.13900    6.63000
      C    C433     6.71400   -5.10900    6.31900
      C    C434     8.75000   -6.25900    5.46700
      N    N435     7.67000   -7.76900   10.14000
      C    C436     7.15100   -9.07700   10.55200
      C    C437     6.01000   -8.90500   11.56500
      O    O438     4.98300   -9.58600   11.48200
      C    C439     8.26900   -9.97700   11.11400
      C    C440     7.69200  -11.24700   11.72500
      C    C441     9.26900  -10.32900   10.00300
      N    N442     6.17900   -7.96200   12.48600
      C    C443     5.14000   -7.66000   13.45300
      C    C444     3.83500   -7.22500   12.81700
      O    O445     2.76100   -7.68800   13.22200
      N    N446     3.91300   -6.33800   11.82700
      C    C447     2.71500   -5.93400   11.08900
      C    C448     2.04700   -7.09700   10.38300
      O    O449     0.81600   -7.15900   10.32300
      C    C450     3.02400   -4.83200   10.06200
      C    C451     3.31600   -3.46300   10.67300
      C    C452     2.10100   -2.85200   11.35200
      O    O453     0.96800   -3.03300   10.84700
      O    O454     2.28200   -2.18700   12.39500
      N    N455     2.83800   -8.01400    9.83500
      C    C456     2.24900   -9.16800    9.15900
      C    C457     1.51500  -10.05300   10.16800
      O    O458     0.38100  -10.45400    9.93300
      C    C459     3.30600   -9.98800    8.43100
      C    C460     3.56800   -9.62700    6.96900
      C    C461     4.07300   -8.20000    6.82000
      C    C462     4.54700  -10.61300    6.35800
      N    N463     2.17000  -10.34400   11.28700
      C    C464     1.56600  -11.12900   12.36200
      C    C465     0.29200  -10.46900   12.87800
      O    O466    -0.69400  -11.14400   13.15900
      C    C467     2.56600  -11.32100   13.50600
      N    N468     0.30700   -9.14800   12.99000
      C    C469    -0.88700   -8.42200   13.41400
      C    C470    -2.02900   -8.57100   12.40700
      O    O471    -3.17200   -8.85100   12.78800
      C    C472    -0.56800   -6.93900   13.64700
      C    C473    -1.73300   -6.00900   14.00100
      C    C474    -2.27200   -6.33600   15.38800
      C    C475    -1.32200   -4.53900   13.93400
      N    N476    -1.71700   -8.39100   11.12600
      C    C477    -2.73300   -8.45800   10.08500
      C    C478    -3.32600   -9.85800   10.00500
      O    O479    -4.52400  -10.01500    9.79300
      C    C480    -2.15000   -8.03800    8.73500
      N    N481    -2.48800  -10.87300   10.17500
      C    C482    -2.95300  -12.25800   10.18100
      C    C483    -3.87800  -12.51500   11.35800
      O    O484    -4.93800  -13.10100   11.18900
      C    C485    -1.76600  -13.22400   10.26400
      C    C486    -0.92600  -13.32200    8.98800
      C    C487     0.26400  -14.26500    9.14800
      O    O488     0.38300  -14.89400   10.21900
      O    O489     1.08500  -14.37800    8.21200
      N    N490    -3.44800  -12.10100   12.55300
      C    C491    -4.23900  -12.25800   13.76700
      C    C492    -5.58500  -11.57300   13.60800
      O    O493    -6.60600  -12.05000   14.09900
      C    C494    -3.50900  -11.65200   14.97700
      O    O495    -2.29100  -12.33900   15.22900
      N    N496    -5.56900  -10.44000   12.92200
      C    C497    -6.78000   -9.67100   12.68900
      C    C498    -7.72300  -10.41100   11.73500
      O    O499    -8.92100  -10.53700   12.01900
      C    C500    -6.44300   -8.26300   12.17500
      O    O501    -5.74500   -7.54700   13.20600
      C    C502    -7.70600   -7.51300   11.82200
      N    N503    -7.18600  -10.93100   10.63300
      C    C504    -7.99600  -11.73300    9.71200
      C    C505    -8.54800  -12.97500   10.40900
      O    O506    -9.69900  -13.34700   10.20900
      C    C507    -7.18100  -12.14400    8.48200
      C    C508    -6.71100  -10.95400    7.66900
      O    O509    -7.31900   -9.86800    7.79900
      O    O510    -5.73300  -11.11400    6.90500
      N    N511    -7.72800  -13.60900   11.24000
      C    C512    -8.16400  -14.81400   11.93900
      C    C513    -9.29300  -14.48900   12.91100
      O    O514   -10.28400  -15.20700   12.97400
      C    C515    -6.99200  -15.47800   12.67900
      C    C516    -6.06200  -16.23400   11.74800
      O    O517    -6.39600  -16.37500   10.55400
      O    O518    -5.00000  -16.70400   12.21000
      N    N519    -9.14800  -13.39800   13.65700
      C    C520   -10.18700  -13.00500   14.61000
      C    C521   -11.52300  -12.74400   13.91100
      O    O522   -12.56400  -13.23800   14.35500
      C    C523    -9.74400  -11.79200   15.45100
      N    N524   -11.48900  -12.00300   12.80100
      C    C525   -12.69800  -11.72900   12.02100
      C    C526   -13.33800  -13.01000   11.49600
      O    O527   -14.54400  -13.20300   11.61500
      C    C528   -12.38500  -10.82100   10.82400
      C    C529   -12.18300   -9.35200   11.15500
      C    C530   -11.67700   -8.59300    9.92100
      C    C531   -11.29500   -7.15100   10.25500
      N    N532   -10.47000   -6.50200    9.18500
      N    N533   -12.52500  -13.87300   10.89500
      C    C534   -13.03200  -15.10000   10.30100
      C    C535   -13.67500  -15.96200   11.38100
      O    O536   -14.70300  -16.60100   11.15800
      C    C537   -11.88500  -15.85100    9.61000
      N    N538   -13.06900  -15.94300   12.56400
      C    C539   -13.56200  -16.67800   13.72800
      C    C540   -14.94000  -16.19400   14.17300
      O    O541   -15.83400  -17.00000   14.44900
      C    C542   -12.56800  -16.50600   14.87600
      C    C543   -12.60800  -17.58200   15.92700
      C    C544   -11.36100  -18.43900   15.92000
      O    O545   -10.67300  -18.48600   14.87800
      O    O546   -11.06100  -19.06500   16.95400
      N    N547   -15.11000  -14.87800   14.25500
      C    C548   -16.38400  -14.29600   14.67500
      C    C549   -17.46600  -14.58300   13.64000
      O    O550   -18.60700  -14.88600   13.98000
      C    C551   -16.26900  -12.78300   14.84900
      O    O552   -15.23000  -12.49400   15.79000
      C    C553   -17.58700  -12.19500   15.34000
      N    N554   -17.09700  -14.49000   12.37000
      C    C555   -18.03300  -14.79000   11.29300
      C    C556   -18.47000  -16.25000   11.33500
      O    O557   -19.65400  -16.54300   11.22800
      C    C558   -17.43900  -14.45000    9.92000
      C    C559   -17.28300  -12.93400    9.79400
      C    C560   -18.33100  -14.97600    8.80300
      C    C561   -16.68400  -12.48700    8.48100
      N    N562   -17.52900  -17.16900   11.50400
      C    C563   -17.90500  -18.57700   11.55000
      C    C564   -18.80000  -18.86600   12.76100
      O    O565   -19.73200  -19.66500   12.67600
      C    C566   -16.66800  -19.47500   11.54200
      C    C567   -16.93500  -20.97900   11.45300
      C    C568   -17.94800  -21.27500   10.35700
      C    C569   -15.63100  -21.73100   11.20000
      N    N570   -18.53700  -18.20000   13.88000
      C    C571   -19.37900  -18.37900   15.06200
      C    C572   -20.82500  -17.98900   14.78100
      O    O573   -21.75800  -18.68000   15.19400
      C    C574   -18.83500  -17.58500   16.24600
      C    C575   -17.90100  -18.40400   17.10500
      O    O576   -18.04900  -19.64400   17.11500
      O    O577   -17.02400  -17.81600   17.77200
      N    N578   -21.00400  -16.88900   14.06100
      C    C579   -22.33300  -16.41100   13.72400
      C    C580   -23.04400  -17.39100   12.80300
      O    O581   -24.23800  -17.63000   12.95600
      C    C582   -22.24200  -15.02000   13.09700
      C    C583   -21.79300  -13.95500   14.09200
      C    C584   -21.44700  -12.63000   13.43400
      O    O585   -21.18400  -12.61600   12.21100
      O    O586   -21.43200  -11.60000   14.14700
      N    N587   -22.30400  -17.97700   11.86400
      C    C588   -22.86800  -18.98400   10.95600
      C    C589   -23.31600  -20.25800   11.68500
      O    O590   -24.38900  -20.79600   11.41500
      C    C591   -21.86900  -19.36300    9.83200
      C    C592   -22.29300  -20.65300    9.16300
      C    C593   -21.76000  -18.23100    8.80800
      N    N594   -22.47900  -20.74800   12.59300
      C    C595   -22.81700  -21.95000   13.34900
      C    C596   -24.00300  -21.68000   14.27200
      O    O597   -24.88400  -22.52400   14.42700
      C    C598   -21.60600  -22.44000   14.15300
      C    C599   -20.51100  -23.10800   13.31900
      C    C600   -19.19400  -23.11300   14.08400
      C    C601   -20.93000  -24.53000   12.95800
      N    N602   -24.02500  -20.49200   14.86900
      C    C603   -25.11800  -20.10800   15.75800
      C    C604   -26.44500  -20.06500   15.00100
      O    O605   -27.46100  -20.56200   15.48400
      C    C606   -24.82100  -18.77100   16.39500
      N    N607   -26.42700  -19.49600   13.79800
      C    C608   -27.63900  -19.39100   12.98400
      C    C609   -28.13600  -20.74900   12.47300
      O    O610   -29.21800  -20.83800   11.90300
      C    C611   -27.41900  -18.42900   11.82700
      N    N612   -27.35400  -21.80100   12.70300
      C    C613   -27.71800  -23.14700   12.26400
      C    C614   -27.94600  -24.13100   13.42100
      O    O615   -28.24200  -23.73800   14.55100
      C    C616   -26.65600  -23.68300   11.32500
