# CIF file generated by openbabel 2.3.2, see http://openbabel.sf.net
data_I
_chemical_name_common '../proteins/pdb/4KPM.pdb'
_cell_length_a 42.45
_cell_length_b 51.508
_cell_length_c 66.707
_cell_angle_alpha 90
_cell_angle_beta 104.39
_cell_angle_gamma 90
_space_group_name_H-M_alt 'P 1 21 1'
_space_group_name_Hall 'P 2yb'
loop_
    _symmetry_equiv_pos_as_xyz
    'x,y,z'
    '-x,1/2+y,-z'
loop_
    _atom_site_type_symbol
    _atom_site_label
    _atom_site_Cartn_x
    _atom_site_Cartn_y
    _atom_site_Cartn_z
      N    N1    -1.61900   13.04000   -5.41800
      C    C2    -0.14700   13.24200   -5.34400
      C    C3     0.49500   12.29300   -4.33600
      O    O4     1.38800   12.70800   -3.58300
      C    C5     0.17600   14.67600   -4.94700
      O    O6    -0.94300   15.52700   -5.17000
      N    N7     0.02500   11.04200   -4.30200
      C    C8     0.66200    9.98800   -3.51500
      C    C9     2.16100    9.87300   -3.87900
      O    O10     3.00400    9.62900   -3.02400
      C    C11    -0.05600    8.61400   -3.64100
      C    C12     0.52200    7.65000   -2.61000
      C    C13     0.05200    7.98600   -5.07100
      C    C14    -0.23500    6.38400   -2.42700
      N    N15     2.49100   10.10600   -5.14100
      C    C16     3.88200   10.04500   -5.59300
      C    C17     4.80000   11.09600   -4.96500
      O    O18     5.98300   10.84900   -4.76800
      C    C19     3.97000   10.13800   -7.11400
      C    C20     3.24600    9.06800   -7.73100
      C    C21     2.07900    9.15800   -8.43600
      C    C22     3.58800    7.69600   -7.69300
      N    N23     1.66300    7.91200   -8.82300
      C    C24     2.57600    6.98500   -8.38900
      C    C25     4.64100    6.98500   -7.12300
      C    C26     2.61100    5.60000   -8.51800
      C    C27     4.68200    5.62800   -7.26100
      C    C28     3.67700    4.94300   -7.98200
      N    N29     4.26000   12.26300   -4.64200
      C    C30     5.08100   13.27600   -3.96400
      C    C31     5.46100   12.80800   -2.55900
      O    O32     6.57300   13.05700   -2.08400
      C    C33     4.37300   14.63900   -3.98000
      C    C34     4.26800   15.19500   -5.36100
      O    O35     5.29100   15.24300   -6.07300
      O    O36     3.15500   15.57600   -5.73700
      N    N37     4.54600   12.11500   -1.89800
      C    C38     4.87800   11.55600   -0.58500
      C    C39     5.90400   10.43900   -0.71600
      O    O40     6.83200   10.37700    0.07000
      C    C41     3.62700   11.10100    0.14100
      N    N42     5.72900    9.56800   -1.70200
      C    C43     6.71500    8.51200   -1.93900
      C    C44     8.08500    9.12600   -2.24900
      O    O45     9.07600    8.68400   -1.71400
      C    C46     6.26700    7.50400   -3.07200
      C    C47     5.00400    6.79700   -2.59100
      C    C48     7.39400    6.56900   -3.49200
      C    C49     4.46800    5.75500   -3.56000
      N    N50     8.11100   10.19400   -3.06100
      C    C51     9.36800   10.84300   -3.40600
      C    C52    10.01500   11.59100   -2.24100
      O    O53    11.22400   11.68700   -2.15100
      C    C54     9.19200   11.70200   -4.61200
      N    N55     9.18400   12.08100   -1.32200
      C    C56     9.76500   12.64100   -0.08700
      C    C57    10.55800   11.60900    0.70400
      O    O58    11.67900   11.84500    1.16700
      N    N59     9.95600   10.44600    0.79200
      C    C60    10.47000    9.24800    1.49300
      C    C61    11.67100    8.63600    0.77700
      O    O62    12.70800    8.36600    1.39000
      C    C63     9.34800    8.22000    1.66000
      S    S64     9.79200    6.72200    2.55000
      N    N65    11.57600    8.54300   -0.54800
      C    C66    12.66100    7.84200   -1.28000
      C    C67    13.85000    8.73700   -1.54000
      O    O68    14.97400    8.25700   -1.64700
      C    C69    12.19400    7.28400   -2.61400
      C    C70    11.17800    6.15200   -2.48700
      C    C71    11.80000    4.84300   -2.12000
      O    O72    13.05900    4.74000   -1.98800
      O    O73    10.99700    3.92600   -1.92700
      N    N74    13.58500   10.01300   -1.77500
      C    C75    14.59000   10.89200   -2.34400
      C    C76    14.58100   12.28300   -1.71900
      O    O77    15.19200   13.20300   -2.24200
      C    C78    14.39800   11.01900   -3.87200
      N    N79    13.85500   12.45900   -0.61400
      C    C80    13.73300   13.80500   -0.02100
      C    C81    13.11300   14.78800   -0.98800
      O    O82    13.34500   15.95600   -0.87900
      N    N83    12.33700   14.31100   -1.95300
      C    C84    11.66400   15.21800   -2.87000
      C    C85    12.53600   15.67800   -4.04700
      O    O86    12.09600   16.51500   -4.81900
      N    N87    13.75900   15.15600   -4.17900
      C    C88    14.65100   15.51600   -5.29500
      C    C89    14.47100   14.51600   -6.44600
      O    O90    15.03000   13.40300   -6.45100
      C    C91    16.11800   15.58900   -4.84600
      C    C92    17.06500   16.00700   -5.97700
      O    O93    16.63900   16.21000   -7.10600
      N    N94    18.35400   16.08600   -5.67400
      N    N95    13.68100   14.92900   -7.43700
      C    C96    13.37000   14.03900   -8.55100
      C    C97    14.54600   13.77100   -9.50100
      O    O98    14.51100   12.82700  -10.27800
      C    C99    12.16700   14.56000   -9.31000
      C    C100    10.87900   14.49600   -8.49200
      C    C101    10.39000   15.44700   -7.63100
      C    C102     9.88600   13.46700   -8.55100
      N    N103     9.18600   15.00500   -7.10000
      C    C104     8.85700   13.79000   -7.66500
      C    C105     9.80600   12.27800   -9.24300
      C    C106     7.76300   12.94500   -7.45700
      C    C107     8.72400   11.44000   -9.05800
      C    C108     7.71900   11.77300   -8.16700
      N    N109    15.59000   14.57800   -9.39700
      C    C110    16.78500   14.46000  -10.21700
      C    C111    17.93300   13.78700   -9.43700
      O    O112    19.06900   13.73700   -9.90400
      C    C113    17.23300   15.85700  -10.75500
      N    N114    17.65200   13.21700   -8.27800
      C    C115    18.76900   12.65500   -7.48400
      C    C116    19.43400   11.44200   -8.18000
      O    O117    18.76900   10.61300   -8.82900
      C    C118    18.31000   12.33100   -6.05900
      C    C119    19.50100   12.33800   -5.10600
      C    C120    17.57800   10.99600   -5.96100
      C    C121    19.09200   12.52700   -3.69300
      N    N122    20.76600   11.34400   -8.04400
      C    C123    21.55200   10.29100   -8.70600
      C    C124    22.80400   10.15500   -7.87600
      O    O125    23.82300   10.78000   -8.18800
      C    C126    21.90500   10.77500  -10.12000
      C    C127    22.82200    9.80600  -10.85400
      O    O128    22.96900    8.62400  -10.51100
      N    N129    23.47300   10.31900  -11.89200
      N    N130    22.75200    9.33200   -6.83900
      C    C131    23.83000    9.35700   -5.83800
      C    C132    24.80800    8.23400   -6.10000
      O    O133    25.87900    8.23900   -5.51100
      C    C134    23.31000    9.20100   -4.40400
      O    O135    22.64100    7.93900   -4.29000
      C    C136    22.36800   10.36400   -4.01800
      N    N137    24.43900    7.28600   -6.95800
      C    C138    25.30100    6.18300   -7.34600
      C    C139    25.01900    4.91500   -6.52000
      O    O140    25.83900    3.99400   -6.46600
      N    N141    23.85800    4.87100   -5.87000
      C    C142    23.47400    3.77000   -4.98600
      C    C143    22.73300    2.66400   -5.71000
      O    O144    22.17200    1.82100   -5.05900
      C    C145    22.62400    4.29500   -3.81500
      C    C146    21.34800    4.90000   -4.28800
      O    O147    21.11800    5.01800   -5.49700
      N    N148    20.47300    5.23300   -3.35500
      N    N149    22.64000    2.71300   -7.04700
      C    C150    21.90400    1.69900   -7.79300
      C    C151    20.51900    2.14900   -8.18500
      O    O152    19.82900    1.44100   -8.88800
      N    N153    20.13400    3.33200   -7.70800
      C    C154    18.79100    3.84300   -7.88300
      C    C155    18.79300    5.28100   -8.32500
      O    O156    19.74300    6.02400   -8.08500
      C    C157    17.95200    3.63900   -6.57700
      C    C158    17.91600    2.17700   -6.09900
      C    C159    18.84900    1.71500   -5.17900
      C    C160    17.00700    1.26900   -6.62200
      C    C161    18.86600    0.40600   -4.78400
      C    C162    17.01500   -0.05300   -6.19900
      C    C163    17.96600   -0.45700   -5.30200
      O    O164    18.00700   -1.76700   -4.91000
      N    N165    17.70600    5.65600   -8.97500
      C    C166    17.71100    6.93400   -9.66700
      C    C167    16.39200    7.66100   -9.49800
      O    O168    15.31400    7.07700   -9.65300
      C    C169    17.94900    6.73800  -11.19400
      C    C170    19.23600    5.98600  -11.49700
      C    C171    19.24900    4.58200  -11.49900
      C    C172    20.44400    6.67500  -11.74800
      C    C173    20.40500    3.87600  -11.74200
      C    C174    21.62500    5.97200  -11.99400
      C    C175    21.57600    4.56000  -12.01200
      O    O176    22.73400    3.83800  -12.24500
      N    N177    16.49800    8.97800   -9.29400
      C    C178    15.36200    9.90800   -9.34900
      C    C179    14.46700    9.87200   -8.13400
      O    O180    14.81200    9.29000   -7.09000
      N    N181    13.32100   10.51800   -8.27400
      C    C182    12.46900   10.81500   -7.13100
      C    C183    11.88300    9.61000   -6.44400
      O    O184    11.58900    9.68300   -5.21300
      N    N185    11.60600    8.52500   -7.18700
      C    C186    11.07600    7.35900   -6.53300
      C    C187    12.10100    6.19700   -6.58100
      O    O188    11.75900    5.01500   -6.43900
      C    C189     9.67000    6.97400   -7.06100
      C    C190     8.66300    8.13800   -6.84700
      C    C191     9.75300    6.48200   -8.50700
      N    N192    13.36400    6.51100   -6.84000
      C    C193    14.43300    5.51700   -6.71300
      C    C194    14.24400    4.26000   -7.51700
      O    O195    14.31800    3.09700   -7.02700
      C    C196    14.70700    5.25900   -5.22500
      C    C197    15.27100    6.49200   -4.51500
      C    C198    16.79300    6.73300   -4.83500
      O    O199    17.17500    7.60900   -5.65600
      N    N200    17.63100    5.97500   -4.14600
      N    N201    14.01200    4.45100   -8.81500
      C    C202    14.02200    3.31500   -9.72300
      C    C203    15.41100    2.71800   -9.90200
      O    O204    16.35600    3.47500  -10.11000
      C    C205    13.61600    3.86000  -11.10000
      C    C206    12.13700    3.88700  -11.36800
      C    C207    11.47400    5.13300  -11.47800
      C    C208    11.44600    2.71000  -11.64000
      C    C209    10.13500    5.21500  -11.82000
      C    C210    10.07400    2.76700  -11.94600
      C    C211     9.43700    4.00800  -12.03000
      N    N212    15.54600    1.39100   -9.84900
      C    C213    16.73300    0.79000  -10.46200
      C    C214    16.63100    0.87000  -12.00000
      O    O215    15.55700    1.11000  -12.57100
      C    C216    17.10000   -0.59300   -9.91500
      C    C217    16.05300   -1.64200  -10.14800
      O    O218    15.50100   -1.74400  -11.21100
      O    O219    15.81500   -2.45200   -9.23600
      N    N220    17.77500    0.76200  -12.67800
      C    C221    17.74200    0.85500  -14.12900
      C    C222    16.91500   -0.20900  -14.84600
      O    O223    16.17200    0.11500  -15.80800
      C    C224    19.14900    1.04300  -14.69100
      C    C225    19.20200    1.45200  -16.14800
      C    C226    18.78500    2.86500  -16.42000
      O    O227    18.82500    3.75700  -15.55900
      N    N228    18.38100    3.11000  -17.65800
      N    N229    16.95900   -1.45400  -14.35900
      C    C230    16.16200   -2.53200  -14.95400
      C    C231    14.66900   -2.17300  -14.91900
      O    O232    13.93600   -2.33600  -15.87300
      N    N233    14.22100   -1.61400  -13.81100
      C    C234    12.80500   -1.37400  -13.61800
      C    C235    12.41500   -0.12100  -14.43900
      O    O236    11.32500   -0.13200  -15.06400
      C    C237    12.46400   -1.15300  -12.13600
      O    O238    12.82800   -2.28200  -11.34400
      C    C239    10.97100   -0.90000  -11.93700
      N    N240    13.25100    0.92700  -14.51100
      C    C241    12.97300    2.07100  -15.38100
      C    C242    12.76600    1.56600  -16.82500
      O    O243    11.77500    1.90800  -17.45800
      C    C244    14.14500    3.04300  -15.30000
      C    C245    14.01700    4.24400  -16.18200
      C    C246    14.75500    4.52600  -17.30000
      C    C247    13.07400    5.31900  -16.02400
      N    N248    14.35300    5.77300  -17.82100
      C    C249    13.29500    6.24700  -17.07200
      C    C250    12.04900    5.57200  -15.08800
      C    C251    12.52500    7.39700  -17.21100
      C    C252    11.27000    6.69600  -15.22800
      C    C253    11.51400    7.61500  -16.27200
      N    N254    13.65200    0.69000  -17.30800
      C    C255    13.56100    0.31800  -18.72000
      C    C256    12.40300   -0.64400  -18.94800
      O    O257    11.69900   -0.52300  -19.96000
      C    C258    14.88500   -0.29700  -19.20500
      C    C259    16.01600    0.68200  -19.13900
      C    C260    17.31700    0.19700  -19.77100
      O    O261    17.35000   -0.89600  -20.38700
      O    O262    18.32300    0.90400  -19.65100
      N    N263    12.19300   -1.59700  -18.02900
      C    C264    11.12100   -2.59000  -18.21600
      C    C265     9.74500   -1.97300  -18.23000
      O    O266     8.81200   -2.51600  -18.86300
      C    C267    11.16100   -3.70600  -17.15700
      N    N268     9.60100   -0.79300  -17.61100
      C    C269     8.29000   -0.12100  -17.52500
      C    C270     8.13500    1.01400  -18.51000
      O    O271     7.22600    1.82600  -18.39700
      C    C272     7.95300    0.24800  -16.08600
      C    C273     7.76000   -1.00400  -15.23700
      O    O274     8.73800   -1.52500  -14.58700
      N    N275     6.55200   -1.54800  -15.27100
      N    N276     9.02100    1.02600  -19.51000
      C    C277     8.89400    1.97100  -20.63100
      C    C278     9.67100    3.25900  -20.47700
      O    O279     9.46800    4.17800  -21.26900
      N    N280    10.53700    3.37200  -19.47300
      C    C281    11.18500    4.66900  -19.21300
      C    C282    12.06900    5.24700  -20.30100
      O    O283    12.21000    6.47000  -20.38100
      N    N284    12.70000    4.40200  -21.12000
      C    C285    13.62400    4.90600  -22.13200
      C    C286    12.90400    5.82900  -23.15600
      O    O287    13.56500    6.66300  -23.79700
      C    C288    14.35400    3.76900  -22.85300
      C    C289    15.29300    2.92600  -22.00900
      C    C290    15.92400    1.91600  -22.95400
      C    C291    16.32500    3.81200  -21.25900
      N    N292    11.58500    5.70700  -23.28500
      C    C293    10.80700    6.63300  -24.12800
      C    C294    10.92400    8.09100  -23.66500
      O    O295    10.80900    9.02300  -24.45400
      C    C296     9.31900    6.24200  -24.07500
      C    C297     8.42900    6.81400  -25.11800
      C    C298     7.12700    5.97700  -25.27100
      N    N299     6.56900    6.12600  -26.62200
      C    C300     6.80200    5.31100  -27.64500
      N    N301     7.56700    4.23100  -27.51000
      N    N302     6.25800    5.58100  -28.82000
      N    N303    11.15500    8.23800  -22.36400
      C    C304    11.20800    9.54200  -21.74300
      C    C305    12.63300   10.04600  -21.58100
      O    O306    12.88300   11.24600  -21.79800
      C    C307    10.53600    9.50500  -20.37500
      C    C308     9.05900    9.13400  -20.43400
      C    C309     8.57600    8.02100  -19.79200
      C    C310     8.16600    9.90400  -21.17300
      C    C311     7.25000    7.68000  -19.86600
      C    C312     6.83100    9.58000  -21.25600
      C    C313     6.36500    8.48400  -20.56300
      O    O314     5.03800    8.14200  -20.60500
      N    N315    13.53500    9.18700  -21.09000
      C    C316    14.87100    9.64600  -20.76000
      C    C317    15.77300    8.44000  -20.48900
      O    O318    15.29000    7.33500  -20.24200
      C    C319    14.80500   10.57300  -19.51400
      N    N320    17.08500    8.62400  -20.54800
      C    C321    17.98500    7.48700  -20.40200
      C    C322    17.93700    6.83900  -19.03500
      O    O323    18.12900    5.65100  -18.98400
      C    C324    19.37500    8.05600  -20.70700
      C    C325    19.09600    9.32500  -21.48900
      C    C326    17.76700    9.85200  -20.99700
      N    N327    17.61400    7.58600  -17.99100
      C    C328    17.50200    7.09500  -16.63600
      C    C329    16.37800    7.87700  -15.99200
      O    O330    16.02100    8.96700  -16.43500
      C    C331    18.76000    7.37800  -15.81800
      C    C332    20.08700    6.76300  -16.42500
      C    C333    21.20600    6.96400  -15.43800
      N    N334    21.27800    8.34900  -14.96300
      C    C335    22.04500    9.31500  -15.49400
      N    N336    22.04600   10.55300  -14.96800
      N    N337    22.86500    9.02900  -16.53100
      N    N338    15.85500    7.34900  -14.88800
      C    C339    14.74600    8.01800  -14.21500
      C    C340    15.09600    9.44200  -13.75500
      O    O341    14.25500   10.30600  -13.87500
      C    C342    14.29000    7.17200  -13.01800
      N    N343    16.32200    9.67100  -13.28500
      C    C344    16.65700   10.98000  -12.76700
      C    C345    16.74500   12.01400  -13.87400
      O    O346    16.71200   13.20600  -13.56400
      C    C347    17.98900   10.95200  -12.00600
      C    C348    19.11100   10.51200  -12.87000
      O    O349    19.07300    9.33400  -13.29400
      O    O350    20.06900   11.23800  -13.09500
      N    N351    16.85300   11.58500  -15.13000
      C    C352    16.90200   12.53000  -16.27600
      C    C353    15.53100   12.86600  -16.87600
      O    O354    15.42800   13.76700  -17.72800
      C    C355    17.90000   12.03300  -17.34500
      C    C356    19.34300   11.92500  -16.89100
      C    C357    20.17200   11.12600  -17.91500
      C    C358    19.94200   13.26900  -16.65000
      N    N359    14.49400   12.21900  -16.36600
      C    C360    13.12200   12.44400  -16.76200
      C    C361    12.46800   13.43600  -15.83800
      O    O362    12.92500   13.64000  -14.69200
      C    C363    12.32100   11.13600  -16.73600
      N    N364    11.40500   14.06000  -16.31300
      C    C365    10.72800   15.00300  -15.44900
      C    C366     9.94600   14.26800  -14.35700
      O    O367     9.69000   13.06600  -14.47300
      C    C368     9.74400   15.86700  -16.21700
      O    O369     8.70900   15.05800  -16.71500
      C    C370    10.39800   16.65000  -17.38400
      N    N371     9.54700   14.97100  -13.30900
      C    C372     8.63200   14.45800  -12.30500
      C    C373     7.41600   13.83200  -12.95400
      O    O374     7.08000   12.70000  -12.66500
      C    C375     8.18100   15.50700  -11.28600
      C    C376     7.02400   15.03200  -10.40600
      C    C377     6.62300   16.22300   -9.49900
      N    N378     5.37300   15.85000   -8.81000
      C    C379     4.15000   15.91900   -9.34900
      N    N380     3.95200   16.32200  -10.61000
      N    N381     3.10800   15.47800   -8.64300
      N    N382     6.75100   14.51700  -13.86700
      C    C383     5.54400   13.92300  -14.50600
      C    C384     5.88400   12.61900  -15.24200
      O    O385     5.12600   11.67500  -15.16600
      C    C386     4.85900   14.92000  -15.45500
      C    C387     4.33700   16.17400  -14.83900
      C    C388     4.10400   17.25200  -15.87700
      O    O389     3.19700   17.02000  -16.75800
      O    O390     4.82000   18.32800  -15.80300
      N    N391     7.02500   12.53900  -15.93100
      C    C392     7.38000   11.31000  -16.63900
      C    C393     7.74700   10.19500  -15.70100
      O    O394     7.39500    9.01300  -15.95000
      C    C395     8.54900   11.56600  -17.57300
      C    C396     8.20300   12.51000  -18.76000
      C    C397     9.42500   13.07900  -19.49300
      O    O398    10.54600   13.05900  -18.93600
      O    O399     9.25500   13.56500  -20.64000
      N    N400     8.45800   10.54600  -14.61300
      C    C401     8.78500    9.51600  -13.65100
      C    C402     7.49200    8.93100  -13.04700
      O    O403     7.38100    7.72100  -12.85600
      C    C404     9.72000   10.05300  -12.57900
      C    C405    11.06700   10.40000  -13.11800
      C    C406    11.97500   10.95700  -12.01900
      O    O407    12.17100   10.30900  -10.99900
      N    N408    12.51600   12.14300  -12.22400
      N    N409     6.51000    9.77700  -12.73000
      C    C410     5.21700    9.30300  -12.20300
      C    C411     4.49800    8.41500  -13.23500
      O    O412     3.94700    7.34100  -12.88300
      C    C413     4.35000   10.53000  -11.80500
      C    C414     4.93300   11.15200  -10.50600
      C    C415     2.88600   10.10000  -11.59800
      C    C416     4.29600   12.42500  -10.00600
      N    N417     4.61200    8.77400  -14.51100
      C    C418     3.96000    7.97500  -15.53600
      C    C419     4.51700    6.54300  -15.53900
      O    O420     3.76700    5.55600  -15.60300
      C    C421     4.02500    8.64900  -16.93600
      N    N422     5.83100    6.41800  -15.45800
      C    C423     6.46200    5.12000  -15.45200
      C    C424     6.13900    4.41700  -14.14900
      O    O425     5.95000    3.19200  -14.13100
      C    C426     8.00800    5.26300  -15.67600
      C    C427     8.71800    3.91200  -15.64100
      C    C428     8.28300    5.92000  -17.01000
      N    N429     6.08900    5.18300  -13.04800
      C    C430     5.73600    4.59500  -11.75600
      C    C431     4.32500    4.05800  -11.73000
      O    O432     4.12400    3.05500  -11.10100
      C    C433     5.98900    5.60400  -10.60300
      N    N434     3.38500    4.68700  -12.42900
      C    C435     2.00800    4.16900  -12.52000
      C    C436     1.96700    2.81700  -13.26100
      O    O437     1.26700    1.91600  -12.85000
      C    C438     1.06600    5.17400  -13.20200
      C    C439     0.84900    6.52400  -12.41100
      C    C440    -0.19000    6.44800  -11.31600
      O    O441    -0.44600    7.53600  -10.76500
      O    O442    -0.73400    5.36100  -10.97900
      N    N443     2.73000    2.69800  -14.34200
      C    C444     2.85600    1.45200  -15.10300
      C    C445     3.47500    0.40300  -14.19800
      O    O446     2.96100   -0.69600  -14.11400
      C    C447     3.66700    1.66600  -16.36000
      C    C448     4.10500    0.27800  -16.94900
      C    C449     2.87600    2.49900  -17.39800
      N    N450     4.54200    0.76200  -13.47900
      C    C451     5.21200   -0.19500  -12.58500
      C    C452     4.30000   -0.70600  -11.48400
      O    O453     4.24900   -1.92800  -11.19400
      C    C454     6.45400    0.50600  -11.96700
      O    O455     7.31400    0.93200  -13.02900
      C    C456     7.22900   -0.38700  -10.99400
      N    N457     3.60400    0.22900  -10.85500
      C    C458     2.65000   -0.16900   -9.82800
      C    C459     1.56900   -1.12100  -10.33200
      O    O460     1.19700   -2.06700   -9.61600
      C    C461     2.03400    1.06200   -9.17500
      C    C462     1.15100    0.75300   -7.98600
      C    C463    -0.30200    0.91100   -8.39400
      N    N464    -1.26700    0.56300   -7.34400
      C    C465    -1.51000   -0.65300   -6.86700
      N    N466    -0.82000   -1.71500   -7.26400
      N    N467    -2.46600   -0.79900   -5.95600
      N    N468     1.08600   -0.88000  -11.54800
      C    C469     0.01800   -1.71200  -12.09700
      C    C470     0.57900   -3.10300  -12.41100
      O    O471    -0.09300   -4.12100  -12.14100
      C    C472    -0.66100   -1.02400  -13.29500
      C    C473    -1.92200   -1.51200  -13.99900
      C    C474    -2.60700   -0.39600  -14.82800
      C    C475    -1.58000   -2.71700  -14.87600
      N    N476     1.80200   -3.15600  -12.96200
      C    C477     2.46700   -4.41500  -13.27500
      C    C478     2.98500   -5.17300  -12.05500
      O    O479     2.85100   -6.40100  -12.00400
      C    C480     3.59400   -4.15400  -14.30100
      C    C481     3.05600   -3.77800  -15.67600
      C    C482     4.19300   -3.59000  -16.69500
      N    N483     4.89500   -4.85100  -16.91600
      C    C484     6.09600   -5.17500  -16.45200
      N    N485     6.81800   -4.32100  -15.70700
      N    N486     6.57700   -6.38300  -16.71900
      N    N487     3.55600   -4.44700  -11.08700
      C    C488     4.40700   -5.00500  -10.02400
      C    C489     3.79400   -4.85400   -8.63400
      O    O490     4.19400   -5.57100   -7.72600
      C    C491     5.82300   -4.32200  -10.02200
      C    C492     6.62400   -4.45200  -11.32400
      C    C493     8.07800   -4.01000  -11.18000
      O    O494     8.60800   -3.87400  -10.05100
      N    N495     8.73500   -3.77300  -12.33100
      N    N496     2.84900   -3.93200   -8.46500
      C    C497     2.35900   -3.56600   -7.14500
      C    C498     3.21500   -2.51700   -6.45700
      O    O499     4.22700   -2.04300   -7.01700
      N    N500     2.78900   -2.14500   -5.24200
      C    C501     3.53400   -1.19700   -4.39100
      C    C502     4.79000   -1.77700   -3.79800
      O    O503     5.72100   -1.03600   -3.40800
      C    C504     2.65700   -0.75800   -3.24100
      C    C505     1.54000    0.08800   -3.61900
      C    C506     0.21500   -0.20400   -3.44700
      C    C507     1.59300    1.39500   -4.19800
      N    N508    -0.55700    0.82400   -3.88900
      C    C509     0.25700    1.82200   -4.36300
      C    C510     2.63600    2.24400   -4.62800
      C    C511    -0.07100    3.07200   -4.90700
      C    C512     2.29900    3.48400   -5.16200
      C    C513     0.96500    3.87500   -5.31400
      N    N514     4.82300   -3.09900   -3.70300
      C    C515     6.03300   -3.81400   -3.31300
      C    C516     7.28600   -3.26900   -3.98900
      O    O517     8.41200   -3.56900   -3.56200
      N    N518     7.12000   -2.45300   -5.03600
      C    C519     8.27900   -1.79800   -5.68100
      C    C520     8.98300   -0.74200   -4.80200
      O    O521    10.17700   -0.46600   -4.97500
      C    C522     7.86000   -1.20800   -7.04500
      N    N523     8.22300   -0.18100   -3.85500
      C    C524     8.71000    0.78000   -2.84100
      C    C525     8.34700    0.28900   -1.41900
      O    O526     7.35200    0.72100   -0.82400
      C    C527     8.06500    2.14200   -3.08900
      C    C528     8.36700    2.60600   -4.46200
      C    C529     9.47100    3.31800   -4.85600
      C    C530     7.55700    2.41400   -5.62500
      N    N531     9.40100    3.57200   -6.20000
      C    C532     8.24900    3.00100   -6.70400
      C    C533     6.33300    1.75200   -5.87900
      C    C534     7.74100    2.98100   -8.00600
      C    C535     5.83100    1.73200   -7.16000
      C    C536     6.52900    2.34400   -8.20800
      N    N537     9.16400   -0.62500   -0.87700
      C    C538     8.80500   -1.47100    0.30500
      C    C539     8.40500   -0.80000    1.62800
      O    O540     7.65200   -1.39000    2.42000
      C    C541    10.04500   -2.37600    0.47500
      C    C542    10.69000   -2.38000   -0.89600
      C    C543    10.51600   -0.91600   -1.35500
      N    N544     8.92200    0.39300    1.88100
      C    C545     8.59700    1.17400    3.08600
      C    C546     7.85000    2.46700    2.68900
      O    O547     6.82300    2.83500    3.26900
      C    C548     9.89700    1.51100    3.88500
      C    C549     9.60200    2.43200    5.03600
      C    C550    10.59100    0.20200    4.37900
      N    N551     8.34400    3.12200    1.65000
      C    C552     7.84800    4.42500    1.29000
      C    C553     6.39400    4.41800    0.78400
      O    O554     5.68700    5.40200    0.97000
      C    C555     8.80100    4.98000    0.25100
      S    S556    10.39500    5.51500    1.01700
      N    N557     5.95500    3.34100    0.14200
      C    C558     4.57900    3.29500   -0.31200
      C    C559     3.61900    3.28900    0.88300
      O    O560     2.62700    4.00300    0.87800
      C    C561     4.33900    2.07700   -1.23300
      N    N562     3.97800    2.55000    1.93300
      C    C563     3.22400    2.59300    3.19400
      C    C564     3.22800    3.96600    3.86300
      O    O565     2.18600    4.43500    4.35400
      C    C566     3.72900    1.53800    4.14200
      N    N567     4.40100    4.61600    3.88800
      C    C568     4.53500    5.94300    4.49000
      C    C569     3.60800    6.96500    3.73900
      O    O570     3.08800    7.93000    4.33400
      C    C571     6.05800    6.30500    4.73700
      C    C572     6.40000    6.36400    6.35700
      C    C573     7.63900    5.63700    7.01800
      N    N574     7.41900    4.30200    7.61100
      C    C575     8.41000    3.56700    8.13500
      N    N576     9.64400    4.04100    8.10800
      N    N577     8.19100    2.37100    8.69100
      N    N578     3.32300    6.69200    2.46400
      C    C579     2.49100    7.59900    1.67900
      C    C580     0.99200    7.28800    1.78800
      O    O581     0.14600    8.01400    1.23700
      C    C582     2.93300    7.60400    0.21300
      N    N583     0.66700    6.21100    2.48600
      C    C584    -0.73100    5.83600    2.70900
      C    C585    -1.18200    4.75000    1.76000
      O    O586    -2.35600    4.37000    1.75600
      N    N587    -0.22600    4.22000    0.99300
      C    C588    -0.50700    3.40800   -0.18000
      C    C589    -1.14500    2.07100    0.07600
      O    O590    -0.93700    1.42100    1.10400
      C    C591     0.73400    3.25500   -1.07100
      N    N592    -1.94600    1.71300   -0.92100
      C    C593    -2.73200    0.49700   -1.01300
      C    C594    -1.95200   -0.76800   -0.62800
      O    O595    -2.20800   -1.38800    0.41300
      C    C596    -3.25100    0.38800   -2.45100
      C    C597    -3.63100    1.74900   -3.10200
      C    C598    -4.01200    1.59500   -4.55400
