# CIF file generated by openbabel 2.3.2, see http://openbabel.sf.net
data_I
_chemical_name_common '../proteins/pdb/4KV2.pdb'
_cell_length_a 46.72
_cell_length_b 46.72
_cell_length_c 279.02
_cell_angle_alpha 90
_cell_angle_beta 90
_cell_angle_gamma 120
_space_group_name_H-M_alt 'P 65 2 2'
_space_group_name_Hall 'P 65 2 (0 0 1)'
loop_
    _symmetry_equiv_pos_as_xyz
    'x,y,z'
    '-y,x-y,2/3+z'
    '-x+y,-x,1/3+z'
    '-x,-y,1/2+z'
    'y,-x+y,1/6+z'
    'x-y,x,5/6+z'
    'y,x,2/3-z'
    'x-y,-y,-z'
    '-x,-x+y,1/3-z'
    '-y,-x,1/6-z'
    '-x+y,y,1/2-z'
    'x,x-y,5/6-z'
loop_
    _atom_site_type_symbol
    _atom_site_label
    _atom_site_Cartn_x
    _atom_site_Cartn_y
    _atom_site_Cartn_z
      N    N1     0.49800   39.48100   17.77000
      C    C2     0.03700   38.67200   16.62200
      C    C3    -0.88400   37.57600   17.12400
      O    O4    -0.47900   36.75600   17.93100
      C    C5     1.22500   38.03600   15.89100
      C    C6     0.79600   37.26500   14.65000
      S    S7     2.10200   36.36100   13.81700
      C    C8     2.21300   34.90300   14.83900
      N    N9    -2.11900   37.54700   16.63700
      C    C10    -3.04100   36.48300   16.99400
      C    C11    -2.53800   35.15400   16.42400
      O    O12    -2.00600   35.11800   15.30500
      C    C13    -4.41900   36.77900   16.43600
      N    N14    -2.73100   34.07500   17.18300
      C    C15    -2.30700   32.74600   16.75300
      C    C16    -3.42600   31.72500   16.97100
      O    O17    -4.36300   31.96300   17.74600
      C    C18    -1.06600   32.25600   17.52700
      O    O19    -1.33900   32.36900   18.91900
      C    C20     0.17700   33.05000   17.20600
      N    N21    -3.30500   30.59000   16.28700
      C    C22    -4.23200   29.48700   16.42700
      C    C23    -3.42700   28.19300   16.53800
      O    O24    -2.42500   27.98400   15.83100
      C    C25    -5.23000   29.40500   15.23300
      O    O26    -6.03300   30.58900   15.16200
      C    C27    -6.16600   28.19700   15.34700
      N    N28    -3.87800   27.33700   17.43700
      C    C29    -3.30800   26.00600   17.60900
      C    C30    -3.30800   26.01100   17.60300
      C    C31    -3.95700   25.05900   16.62500
      O    O32    -5.18000   24.91200   16.62500
      C    C33    -3.56000   25.47500   19.02700
      C    C34    -3.56100   25.49500   19.01700
      C    C35    -2.47400   25.81100   20.03300
      C    C36    -2.66200   26.10400   20.06800
      C    C37    -2.26200   27.30600   20.08600
      C    C38    -2.85300   25.42700   21.41200
      N    N39    -1.22800   27.71500   21.02900
      N    N40    -4.18800   25.61900   21.98500
      C    C41    -0.93000   28.98400   21.23700
      C    C42    -4.63600   26.75900   22.50900
      N    N43    -1.60500   29.91600   20.57100
      N    N44    -3.88600   27.84600   22.50500
      N    N45     0.01900   29.31800   22.07900
      N    N46    -5.85400   26.82100   23.00700
      N    N47    -3.14300   24.43300   15.78600
      C    C48    -3.63500   23.41300   14.88100
      C    C49    -2.79000   22.17000   15.03200
      O    O50    -1.66000   22.23700   15.52600
      C    C51    -3.66600   23.86500   13.39500
      C    C52    -4.48500   25.14300   13.24600
      C    C53    -2.26900   24.02600   12.84800
      N    N54    -3.36000   21.03300   14.65800
      C    C55    -2.63100   19.78500   14.66100
      C    C56    -2.62000   19.31400   13.20800
      O    O57    -3.67500   19.19700   12.59100
      C    C58    -3.33500   18.75200   15.53200
      O    O59    -3.37000   19.19100   16.90600
      C    C60    -2.63800   17.41200   15.43600
      N    N61    -1.43800   19.04200   12.68100
      C    C62    -1.28900   18.50100   11.34400
      C    C63    -1.22800   16.98000   11.40000
      O    O64    -0.37400   16.41600   12.10000
      C    C65     0.02400   18.98600   10.66700
      C    C66     0.09200   20.51200   10.66200
      C    C67     0.14400   18.40600    9.25100
      C    C68    -1.12200   21.21700   10.07100
      N    N69    -2.12000   16.33000   10.66600
      C    C70    -2.09200   14.87500   10.46900
      C    C71    -1.26000   14.49000    9.23900
      O    O72    -1.57000   14.91000    8.14500
      C    C73    -3.52300   14.36600   10.26700
      C    C74    -3.75700   12.84700   10.17000
      C    C75    -3.21800   12.10000   11.39500
      C    C76    -5.24700   12.61700   10.01800
      N    N77    -0.23800   13.66800    9.43100
      C    C78     0.58700   13.12600    8.36400
      C    C79     0.58000   11.61000    8.55600
      O    O80     1.31500   11.06900    9.38100
      C    C81     2.03000   13.66400    8.40300
      O    O82     2.02600   15.09500    8.47300
      C    C83     2.77200   13.26600    7.16400
      N    N84    -0.28400   10.93000    7.79900
      C    C85    -0.51700    9.49600    7.96500
      C    C86    -1.11100    9.26700    9.33700
      O    O87    -2.24100    9.68100    9.60200
      N    N88    -0.33500    8.65200   10.22100
      C    C89    -0.79500    8.35100   11.57300
      C    C90    -0.26600    9.33900   12.57300
      O    O91    -0.66200    9.30100   13.72200
      C    C92    -0.28900    6.99200   12.02100
      C    C93    -0.78200    5.86000   11.17700
      C    C94    -0.87500    4.58000   11.98600
      N    N95     0.30000    3.73100   11.83400
      C    C96     0.60700    3.05800   10.72300
      N    N97    -0.16200    3.16200    9.63900
      N    N98     1.69100    2.28000   10.68800
      N    N99     0.67300   10.17200   12.14400
      C    C100     1.36300   11.07000   13.04500
      C    C101     0.63000   12.38400   13.14700
      O    O102     0.23700   12.96300   12.14300
      C    C103     2.78200   11.33500   12.56400
      C    C104     3.52800   12.35500   13.42800
      C    C105     3.71000   11.86200   14.85000
      N    N106     4.68200   10.77700   14.90700
      C    C107     6.00100   10.93400   15.04600
      N    N108     6.55100   12.14300   15.14600
      N    N109     6.78500    9.86000   15.07200
      N    N110     0.47900   12.87000   14.36700
      C    C111    -0.00300   14.20900   14.58100
      C    C112     1.15300   15.09900   15.01900
      O    O113     1.98800   14.69400   15.82600
      C    C114    -1.07700   14.20400   15.64800
      C    C115    -2.37000   13.55200   15.20100
      S    S116    -3.45700   13.47600   16.63200
      C    C117    -4.88200   12.78500   15.78900
      N    N118     1.16300   16.31800   14.51000
      C    C119     2.12000   17.30700   14.92100
      C    C120     1.41400   18.62200   15.28800
      O    O121     0.80200   19.26700   14.43300
      C    C122     3.16600   17.56400   13.81800
      O    O123     3.74600   16.30800   13.39500
      C    C124     4.25300   18.45700   14.32800
      N    N125     1.54500   19.05100   16.54200
      C    C126     0.89400   20.28900   16.97000
      C    C127     1.71800   21.48300   16.54300
      O    O128     2.92500   21.50300   16.79000
      C    C129     0.66800   20.31300   18.48100
      C    C130    -0.36300   19.29200   18.94100
      O    O131    -0.94700   18.57300   18.09300
      O    O132    -0.57900   19.19100   20.17100
      N    N133     1.06400   22.47000   15.91600
      C    C134     1.70900   23.74000   15.51200
      C    C135     0.96600   24.94000   16.08200
      O    O136    -0.20100   24.83000   16.46700
      C    C137     1.71700   23.89700   13.98600
      C    C138     2.33100   22.76000   13.16600
      C    C139     2.13500   23.09900   11.69400
      C    C140     3.81500   22.57800   13.49800
      N    N141     1.65000   26.07300   16.11300
      C    C142     1.04500   27.37400   16.43500
      C    C143     1.25900   28.26400   15.21500
      O    O144     2.39500   28.56600   14.88000
      C    C145     1.69900   28.02000   17.65800
      C    C146     1.04100   29.35800   17.98800
      C    C147     1.63500   27.09000   18.86500
      N    N148     0.16700   28.67000   14.57200
      C    C149     0.22600   29.38000   13.32100
      C    C150    -0.43400   30.73600   13.46500
      O    O151    -1.29100   30.91500   14.30900
      C    C152    -0.49600   28.57900   12.24000
      C    C153     0.06100   27.18300   11.94700
      C    C154    -0.77100   26.46000   10.91100
      C    C155     1.51800   27.29500   11.53600
      N    N156    -0.05000   31.68800   12.61400
      C    C157    -0.74500   32.98000   12.62100
      C    C158    -2.22000   32.82300   12.25400
      O    O159    -2.55000   32.20800   11.19800
      C    C160    -0.04300   33.77800   11.52700
      C    C161     1.19600   33.03500   11.18800
      C    C162     0.97600   31.60200   11.56800
      N    N163    -3.08300   33.41200   13.06600
      C    C164    -4.51300   33.30800   12.86400
      C    C165    -5.06600   34.21600   11.77100
      O    O166    -6.03100   33.84000   11.14700
      C    C167    -5.23600   33.60600   14.16900
      N    N168    -4.49300   35.41500   11.57200
      C    C169    -5.14000   36.47600   10.79100
      C    C170    -4.42500   36.83600    9.47000
      O    O171    -4.92100   37.64000    8.69200
      C    C172    -5.31400   37.71500   11.66200
      N    N173    -3.28800   36.19100    9.21600
      C    C174    -2.47100   36.40900    8.03700
      C    C175    -2.83400   35.33600    7.01500
      O    O176    -3.08100   34.18700    7.38800
      C    C177    -0.99200   36.25800    8.44100
      C    C178    -0.05900   36.32800    7.25300
      C    C179    -0.63500   37.32500    9.46400
      N    N180    -2.83500   35.68300    5.71500
      C    C181    -3.17600   34.68100    4.71700
      C    C182    -2.27100   33.45400    4.78600
      O    O183    -1.07100   33.56500    5.01500
      C    C184    -2.99900   35.43000    3.39000
      C    C185    -3.33400   36.83000    3.74600
      C    C186    -2.69800   37.01500    5.09700
      N    N187    -2.88500   32.30000    4.61100
      C    C188    -2.16600   31.02600    4.62700
      C    C189    -0.99700   30.95200    3.63700
      O    O190     0.04400   30.40500    3.97800
      C    C191    -3.13800   29.88400    4.39700
      C    C192    -3.95100   29.49100    5.63100
      S    S193    -5.28600   28.30000    5.34100
      C    C194    -6.68300   29.35500    4.96900
      N    N195    -1.13700   31.55800    2.46400
      C    C196    -0.04700   31.59100    1.46000
      C    C197     1.26100   32.21700    1.97700
      O    O198     2.32800   31.90200    1.47200
      C    C199    -0.49200   32.29500    0.15000
      C    C200    -0.95400   33.73000    0.30100
      C    C201    -1.76800   34.26000   -0.87800
      O    O202    -2.10000   33.49000   -1.81600
      O    O203    -2.09100   35.47400   -0.85500
      N    N204     1.16200   33.07900    2.99400
      C    C205     2.31400   33.82500    3.51400
      C    C206     3.29200   32.90300    4.27100
      O    O207     4.49800   33.15500    4.29000
      C    C208     1.85100   34.96100    4.46900
      O    O209     0.78200   35.70100    3.84700
      C    C210     2.99700   35.90400    4.77700
      N    N211     2.78100   31.82200    4.84600
      C    C212     3.60500   30.94300    5.66500
      C    C213     3.52400   29.47200    5.31800
      O    O214     4.23100   28.66300    5.91000
      C    C215     3.28000   31.14400    7.17000
      C    C216     1.83600   30.85600    7.52500
      C    C217     1.41600   29.56300    7.84600
      C    C218     0.90100   31.87600    7.54300
      C    C219     0.09600   29.29900    8.16400
      C    C220    -0.42700   31.63300    7.88000
      C    C221    -0.82100   30.34000    8.19700
      O    O222    -2.13600   30.10000    8.50600
      N    N223     2.71600   29.08600    4.34600
      C    C224     2.55800   27.65000    4.11900
      C    C225     3.85500   26.96200    3.65000
      O    O226     4.13700   25.82100    4.04000
      C    C227     1.41500   27.33900    3.14600
      C    C228     1.22100   25.80800    3.09000
      C    C229     1.68400   27.94700    1.79100
      C    C230    -0.12400   25.38200    2.63900
      N    N231     4.64500   27.64500    2.82800
      C    C232     5.81800   26.98700    2.23800
      C    C233     6.86700   26.64200    3.30800
      O    O234     7.39600   25.54300    3.32600
      C    C235     6.40700   27.82000    1.11000
      C    C236     5.51900   27.81800   -0.12800
      O    O237     4.97400   26.73500   -0.53300
      O    O238     5.40400   28.89200   -0.72600
      N    N239     7.14200   27.57500    4.20700
      C    C240     8.07100   27.28800    5.29400
      C    C241     7.46300   26.31500    6.35300
      O    O242     8.21300   25.58400    7.01100
      C    C243     8.60900   28.57200    5.92300
      C    C244     9.70700   29.27000    5.07000
      O    O245    10.02500   28.82000    3.93900
      O    O246    10.27200   30.28200    5.53100
      N    N247     6.12800   26.26600    6.48100
      C    C248     5.44600   25.24700    7.30700
      C    C249     5.75400   23.85400    6.77500
      O    O250     6.11900   22.94500    7.53000
      C    C251     3.90400   25.47500    7.38600
      O    O252     3.63500   26.75900    7.96500
      C    C253     3.20100   24.44600    8.21200
      N    N254     5.63000   23.69100    5.46200
      C    C255     5.92800   22.41100    4.82800
      C    C256     7.39200   22.07700    5.08100
      O    O257     7.73200   20.95400    5.43500
      C    C258     5.62500   22.46300    3.29600
      C    C259     6.20300   21.25000    2.60000
      C    C260     4.13600   22.58000    3.05600
      N    N261     8.26200   23.07500    4.94600
      C    C262     9.68500   22.85100    5.09600
      C    C263    10.06600   22.42000    6.52900
      O    O264    10.85600   21.49500    6.73700
      C    C265    10.43800   24.08000    4.66600
      N    N266     9.46400   23.09800    7.50500
      C    C267     9.65600   22.76400    8.92900
      C    C268     9.17200   21.34700    9.22500
      O    O269     9.90000   20.55900    9.86300
      C    C270     8.93900   23.80200    9.83100
      C    C271     8.86300   23.31500   11.27200
      C    C272     9.64900   25.14100    9.73200
      N    N273     7.96800   21.00200    8.74600
      C    C274     7.39100   19.68300    9.03700
      C    C275     8.24100   18.58900    8.40000
      O    O276     8.48300   17.54800    9.01600
      C    C277     5.96000   19.57600    8.54800
      C    C278     4.93800   20.32100    9.38900
      C    C279     3.66300   20.46700    8.59400
      C    C280     4.67600   19.53600   10.65900
      N    N281     8.75200   18.86700    7.19000
      C    C282     9.67100   17.93300    6.54500
      C    C283    10.89200   17.63600    7.43800
      O    O284    11.34600   16.49300    7.51000
      C    C285    10.13700   18.46600    5.16400
      O    O286    11.01200   17.52700    4.52200
      N    N287    11.43700   18.65400    8.10200
      C    C288    12.61700   18.46500    8.97000
      C    C289    12.19300   17.70600   10.22500
      O    O290    12.84400   16.73200   10.65300
      C    C291    13.22400   19.81300    9.37800
      C    C292    13.73200   20.66400    8.22600
      C    C293    15.21300   20.49700    7.94500
      O    O294    15.92000   19.84500    8.73900
      O    O295    15.67600   21.06500    6.93100
      N    N296    11.07800   18.14100   10.80500
      C    C297    10.57400   17.53400   12.05000
      C    C298    10.35000   16.04300   11.85500
      O    O299    10.68300   15.26000   12.72700
      C    C300     9.27900   18.22300   12.54900
      C    C301     8.62100   17.44300   13.67600
      C    C302     9.58200   19.61600   13.05100
      N    N303     9.80500   15.65300   10.70300
      C    C304     9.42300   14.26800   10.46400
      C    C305    10.41700   13.51700    9.58500
      O    O306    10.08800   12.44800    9.05100
      C    C307     8.03400   14.21500    9.84400
      C    C308     6.89800   14.80700   10.67000
      C    C309     5.62400   14.84700    9.84100
      C    C310     6.64900   14.04400   11.95700
      N    N311    11.64200   14.03800    9.46800
      C    C312    12.61900   13.43300    8.55500
      C    C313    13.02800   12.02200    8.97900
      O    O314    13.29700   11.17900    8.12000
      C    C315    13.85300   14.32000    8.36200
      C    C316    14.81900   14.36300    9.54400
      C    C317    15.89900   15.41800    9.36900
      O    O318    15.80100   16.19900    8.40900
      O    O319    16.84800   15.46400   10.18600
      N    N320    13.06000   11.77100   10.29200
      C    C321    13.44000   10.45400   10.84000
      C    C322    12.25300    9.53100   11.12000
      O    O323    12.43600    8.40900   11.57800
      C    C324    14.24300   10.62600   12.13200
      C    C325    15.57300   11.33300   11.91300
      O    O326    16.11200   11.29100   10.78200
      O    O327    16.08300   11.92000   12.89100
      N    N328    11.04100    9.99600   10.84300
      C    C329     9.84000    9.19100   11.06900
      C    C330     9.68600    8.12100    9.96200
      O    O331     9.76600    8.44900    8.78300
      C    C332     8.60500   10.10800   11.13200
      O    O333     8.71200   10.95200   12.28400
      C    C334     7.32500    9.31000   11.23200
      N    N335     9.46700    6.84000   10.33800
      C    C336     9.27000    5.81100    9.29500
      C    C337     8.16300    6.16900    8.28800
      O    O338     7.19300    6.84900    8.64600
      C    C339     8.90800    4.55400   10.09700
      C    C340     9.50000    4.77600   11.44800
      C    C341     9.45600    6.25900   11.69500
      N    N342     8.32100    5.73700    7.04100
      C    C343     7.38900    6.10900    5.97100
      C    C344     5.99900    5.45900    6.11100
      O    O345     4.98500    6.07800    5.74900
      C    C346     7.98900    5.77400    4.60900
      N    N347     5.95300    4.22000    6.61000
      C    C348     4.67600    3.51600    6.81500
      C    C349     3.77800    4.24800    7.82800
      O    O350     2.54900    4.20200    7.71900
      C    C351     4.89500    2.04300    7.22300
      C    C352     5.42500    1.88600    8.64600
      O    O353     6.41800    2.55300    8.99900
      O    O354     4.85200    1.07900    9.40900
      N    N355     4.40300    4.92100    8.79400
      C    C356     3.69300    5.71100    9.79400
      C    C357     3.14300    6.99900    9.16400
      O    O358     2.07400    7.47400    9.53500
      C    C359     4.61400    6.00700   11.01000
      C    C360     4.01300    7.05300   11.94600
      C    C361     4.89600    4.72300   11.77400
      N    N362     3.86500    7.54200    8.19100
      C    C363     3.41500    8.73100    7.46000
      C    C364     2.44300    8.43400    6.31900
      O    O365     2.04400    9.35000    5.61000
      C    C366     4.62700    9.50600    6.91500
      C    C367     5.61300    9.96400    7.99700
      C    C368     6.80000   10.67200    7.36000
      C    C369     4.92200   10.85300    9.03200
      N    N370     2.03400    7.17100    6.15900
      C    C371     1.12500    6.79100    5.09200
      C    C372     1.66900    7.18200    3.73800
      O    O373     0.91800    7.60300    2.87100
      N    N374     2.98600    7.05300    3.57000
      C    C375     3.66300    7.41600    2.33300
      C    C376     3.71800    8.90900    2.01300
      O    O377     4.03000    9.26900    0.88700
      N    N378     3.43700    9.78100    2.98500
      C    C379     3.33100   11.22300    2.72000
      C    C380     4.61200   11.74300    2.07900
      O    O381     5.70600   11.46500    2.54900
      C    C382     3.02500   12.01700    3.99700
      C    C383     2.71600   13.46300    3.73500
      C    C384     1.42300   13.86700    3.49300
      C    C385     3.73400   14.40400    3.65000
      C    C386     1.12700   15.19500    3.21900
      C    C387     3.44900   15.73800    3.37300
      C    C388     2.14500   16.13000    3.14800
      N    N389     4.47400   12.50500    1.00300
      C    C390     5.63200   12.99800    0.26700
      C    C391     5.75100   14.51100    0.41100
      O    O392     5.00300   15.24700   -0.20500
      C    C393     5.49600   12.60100   -1.20400
      C    C394     6.72500   12.93700   -2.03600
      O    O395     7.73700   13.45600   -1.48500
      O    O396     6.67500   12.64000   -3.25900
      N    N397     6.70100   14.95600    1.22800
      C    C398     7.03300   16.39000    1.36600
      C    C399     7.69300   16.99300    0.11900
      O    O400     7.78300   18.22000   -0.00200
      C    C401     7.95300   16.59700    2.57400
      C    C402     7.25400   16.44100    3.86300
      C    C403     6.38200   17.42900    4.30400
      C    C404     7.42300   15.29800    4.63500
      C    C405     5.68700   17.28200    5.48200
      C    C406     6.73600   15.15000    5.82900
      C    C407     5.87300   16.14400    6.25200
      N    N408     8.16300   16.13400   -0.78900
      C    C409     8.84600   16.56100   -2.01500
      C    C410     7.90200   16.53900   -3.22100
      O    O411     8.32600   16.68500   -4.35700
      C    C412    10.12200   15.71500   -2.30300
      O    O413     9.78900   14.34200   -2.52100
      C    C414    11.10100   15.78900   -1.15600
      N    N415     6.61300   16.37400   -2.96500
      C    C416     5.59300   16.45300   -4.00600
      C    C417     5.63900   17.80500   -4.71700
      O    O418     5.82800   18.83800   -4.08200
      C    C419     4.20800   16.23500   -3.40500
      N    N420     5.44700   17.79500   -6.03400
      C    C421     5.41800   19.03700   -6.79100
      C    C422     4.03100   19.62400   -6.72600
      O    O423     3.10300   18.96300   -6.30600
      C    C424     5.82800   18.78500   -8.24000
      C    C425     7.20800   18.17700   -8.36300
      C    C426     7.55400   17.84300   -9.79600
      O    O427     7.37900   16.72000  -10.24400
      N    N428     8.02700   18.83200  -10.52500
      N    N429     3.87800   20.87600   -7.11900
      C    C430     2.55800   21.49400   -7.12400
      C    C431     2.35400   22.34900   -5.89900
      O    O432     3.22600   22.45000   -5.04000
      N    N433     1.17200   22.93200   -5.80600
      C    C434     0.93000   24.06300   -4.93500
      C    C435     0.39000   23.51000   -3.64800
      O    O436    -0.64700   22.86200   -3.67600
      C    C437    -0.09200   25.01100   -5.60400
      C    C438    -0.40300   26.20800   -4.71600
      C    C439     0.41700   25.45800   -6.97400
      N    N440     1.08500   23.74400   -2.53300
      C    C441     0.65700   23.26400   -1.20500
      C    C442    -0.46800   24.12300   -0.61100
      O    O443    -0.48500   25.32800   -0.78600
      C    C444     1.82400   23.26300   -0.22700
      C    C445     2.83400   22.18300   -0.47100
      C    C446     4.05500   22.32700   -1.02300
      C    C447     2.68700   20.79800   -0.16100
      N    N448     4.70500   21.11100   -1.07500
      C    C449     3.87000   20.15000   -0.57000
      C    C450     1.66700   20.04000    0.41700
      C    C451     4.07800   18.77200   -0.39300
      C    C452     1.86800   18.64700    0.58900
      C    C453     3.06900   18.04000    0.17600
      N    N454    -1.39600   23.48500    0.10200
      C    C455    -2.45300   24.19900    0.84300
      C    C456    -2.80400   23.35200    2.04700
      O    O457    -2.43300   22.17300    2.11600
      C    C458    -3.67500   24.43800   -0.02200
      N    N459    -3.48600   23.97900    3.00200
      C    C460    -4.05900   23.27200    4.13900
      C    C461    -5.45100   22.77900    3.76600
      O    O462    -6.14800   23.40100    2.94700
      C    C463    -4.21300   24.17900    5.32700
      C    C464    -2.91100   24.68000    5.88400
      C    C465    -2.14100   23.87500    6.71100
      C    C466    -2.45400   25.96000    5.59200
      C    C467    -0.95200   24.34600    7.25200
      C    C468    -1.25500   26.42900    6.12900
      C    C469    -0.51000   25.61500    6.97000
      N    N470    -5.83400   21.65800    4.35200
      C    C471    -7.16500   21.12000    4.16200
      C    C472    -7.60400   20.41300    5.42000
      O    O473    -6.80300   19.77800    6.12300
      C    C474    -7.19400   20.15100    2.99200
      N    N475    -8.88400   20.50900    5.72100
      C    C476    -9.45700   19.63100    6.72400
      C    C477    -9.41000   18.20500    6.17000
      O    O478    -9.53900   18.02600    4.96700
      C    C479   -10.87500   20.05800    7.05300
      C    C480   -10.88300   21.29700    7.92800
      C    C481   -12.27600   21.58500    8.43100
      N    N482   -12.37600   22.83700    9.15900
      C    C483   -12.65300   24.02800    8.63200
      N    N484   -12.86300   24.18100    7.32600
      N    N485   -12.74400   25.08200    9.44700
      N    N486    -9.18100   17.19400    7.02800
      C    C487    -8.94700   15.85500    6.46000
      C    C488   -10.00900   15.37300    5.48500
      O    O489   -11.19100   15.34300    5.82400
      C    C490    -8.90600   14.95100    7.70000
      C    C491    -8.45100   15.84600    8.80700
      C    C492    -9.07400   17.17700    8.50100
      N    N493    -9.58500   15.01300    4.26700
      C    C494   -10.49200   14.47500    3.26300
      C    C495   -11.32400   15.51800    2.51700
      O    O496   -12.14600   15.17400    1.68900
      N    N497   -11.12400   16.79600    2.78800
      C    C498   -11.95100   17.85100    2.18000
      C    C499   -11.17800   18.69000    1.15300
      O    O500    -9.95200   18.69900    1.16700
      C    C501   -12.44300   18.78900    3.27600
      O    O502   -13.26300   18.09700    4.19300
      N    N503   -11.88800   19.46500    0.30600
      C    C504   -11.14200   20.30700   -0.62800
      C    C505   -10.28900   21.32800    0.14000
      O    O506   -10.63600   21.67000    1.25300
      C    C507   -12.23700   20.99400   -1.43100
      C    C508   -13.36300   20.03000   -1.39700
      C    C509   -13.33100   19.45700   -0.00400
      N    N510    -9.17300   21.78100   -0.45000
      C    C511    -8.25200   22.64100    0.26500
      C    C512    -8.77400   24.04600    0.51800
      O    O513    -9.47500   24.63900   -0.31200
      C    C514    -7.02900   22.70300   -0.66500
      C    C515    -7.54500   22.40000   -2.01800
      C    C516    -8.68200   21.42900   -1.79200
      N    N517    -8.40200   24.57100    1.67200
      C    C518    -8.67200   25.95500    2.02000
      C    C519    -7.98900   26.91300    1.06700
      O    O520    -6.86000   26.69000    0.64700
      C    C521    -8.21600   26.26000    3.46700
      C    C522    -8.74800   25.30000    4.54500
      C    C523    -8.22400   25.69500    5.92900
      C    C524   -10.26500   25.31300    4.52600
      N    N525    -8.69500   27.99800    0.75600
      C    C526    -8.15000   29.09700   -0.06200
      C    C527    -6.90600   29.71700    0.57600
      O    O528    -6.92200   30.17500    1.73800
      C    C529    -9.21500   30.18100   -0.30800
      C    C530   -10.40600   29.70100   -1.12300
      C    C531   -10.06200   29.57700   -2.60100
      C    C532   -11.05700   28.70100   -3.33800
      N    N533   -12.32900   29.42200   -3.58300
      N    N534    -5.83100   29.74000   -0.20600
      C    C535    -4.54500   30.25600    0.24200
      C    C536    -4.52800   31.75800    0.49700
      O    O537    -3.69900   32.24500    1.28900
      C    C538    -3.45500   29.91500   -0.78300
      C    C539    -2.95500   28.47500   -0.73300
      C    C540    -2.28100   28.12400   -2.04900
      C    C541    -2.01800   28.26100    0.43100
      N    N542    -5.42900   32.49800   -0.13200
      C    C543    -5.53000   33.94000    0.15100
      C    C544    -6.34600   34.28700    1.39800
      O    O545    -6.51200   35.45800    1.73500
      C    C546    -6.00300   34.73300   -1.07000
      C    C547    -7.41400   34.40100   -1.50800
      O    O548    -8.06300   33.48000   -0.98700
      O    O549    -7.88200   35.07200   -2.42600
      N    N550    -6.82800   33.26500    2.10100
      C    C551    -7.57500   33.45300    3.33300
      C    C552    -6.69700   33.10100    4.52300
      O    O553    -5.74500   32.36300    4.38100
      C    C554    -8.84000   32.59100    3.32500
      C    C555    -9.96100   33.18700    2.50100
      C    C556   -11.22300   32.32700    2.50300
      O    O557   -11.54100   31.62100    3.48600
      N    N558   -11.95100   32.37600    1.39900
      N    N559    -7.01300   33.69000    5.67400
      C    C560    -6.39500   33.35300    6.94700
      C    C561    -7.14200   32.17700    7.55600
      O    O562    -8.27100   31.85100    7.13800
      C    C563    -6.50000   34.55000    7.89200
      O    O564    -7.87900   34.82000    8.20200
      N    N565    -6.52000   31.52500    8.53700
      C    C566    -7.21700   30.49100    9.33800
      C    C567    -8.50900   31.00600    9.99800
      O    O568    -9.50100   30.26700   10.10300
      C    C569    -6.27300   29.92200   10.38700
      C    C570    -5.08900   29.10400    9.83700
      C    C571    -4.11500   28.84900   10.96900
      C    C572    -5.54400   27.76600    9.25400
      N    N573    -8.51200   32.27300   10.43200
      C    C574    -9.73000   32.87500   10.98800
      C    C575   -10.82900   32.95700    9.92500
      O    O576   -11.97100   32.58700   10.18500
      C    C577    -9.47700   34.29200   11.50200
      C    C578    -8.72000   34.34000   12.82700
      O    O579    -8.68400   33.35700   13.59100
      O    O580    -8.16900   35.42000   13.11800
      N    N581   -10.47300   33.46300    8.74100
      C    C582   -11.40200   33.56300    7.59700
      C    C583   -12.01100   32.19400    7.30700
      O    O584   -13.20000   32.09500    7.06300
      C    C585   -10.69400   34.02000    6.31800
      C    C586   -10.20600   35.46000    6.36100
      O    O587   -10.76600   36.30300    7.10700
      O    O588    -9.23900   35.75000    5.60800
      N    N589   -11.18400   31.14300    7.36500
      C    C590   -11.63700   29.78500    7.08100
      C    C591   -12.35600   29.11900    8.23900
      O    O592   -12.74400   27.94700    8.13400
      C    C593   -10.45200   28.91100    6.64400
      N    N594   -12.53500   29.83300    9.34600
      C    C595   -13.24100   29.27700   10.48400
      C    C596   -12.49000   28.19000   11.22500
      O    O597   -13.09900   27.35500   11.87800
      N    N598   -11.16900   28.21800   11.17900
      C    C599   -10.37500   27.20900   11.87600
      C    C600   -10.19800   27.60900   13.34500
      O    O601    -9.75100   28.71900   13.64100
      C    C602    -9.00500   27.01700   11.18600
      C    C603    -8.15200   26.00400   11.92600
      C    C604    -9.19200   26.56600    9.74800
      N    N605   -10.51400   26.68600   14.24700
      C    C606   -10.52100   26.93900   15.69600
      C    C607    -9.36000   26.21300   16.33700
      O    O608    -8.81000   25.29600   15.73200
      C    C609   -11.86400   26.50700   16.35800
      C    C610   -13.02400   27.28100   15.75500
      C    C611   -12.12900   25.00800   16.21500
      N    N612    -8.97800   26.63200   17.55200
      C    C613    -7.89700   25.95400   18.28800
      C    C614    -8.09200   24.43500   18.37100
      O    O615    -9.19400   23.95400   18.69300
      C    C616    -7.73700   26.49800   19.71800
      C    C617    -7.12200   27.88500   19.76400
      O    O618    -6.20900   28.18900   18.98100
      O    O619    -7.54400   28.67700   20.60900
      N    N620    -7.01400   23.70100   18.07600
      C    C621    -7.00500   22.24100   18.13300
      C    C622    -7.52700   21.52700   16.88100
      O    O623    -7.52700   20.29400   16.81800
      N    N624    -7.97100   22.28200   15.87900
      C    C625    -8.46400   21.70300   14.63300
      C    C626    -7.39500   20.83600   13.97800
      O    O627    -6.20300   21.20300   13.96600
      C    C628    -8.84600   22.80000   13.62700
      O    O629   -10.05900   23.46600   13.94100
      N    N630    -7.83700   19.72100   13.38600
      C    C631    -6.97100   18.87700   12.57200
      C    C632    -6.95600   19.43900   11.14800
      O    O633    -8.01200   19.64400   10.52900
      C    C634    -7.48100   17.42300   12.46500
      C    C635    -7.33400   16.45200   13.61600
      C    C636    -7.52300   15.01600   13.13100
      C    C637    -5.96700   16.60100   14.24400
      N    N638    -5.74900   19.64100   10.64800
      C    C639    -5.51500   19.92700    9.25300
      C    C640    -4.55900   18.93900    8.59800
      O    O641    -3.79700   18.21500    9.26500
      C    C642    -4.98700   21.36600    9.11300
      C    C643    -5.95000   22.48100    9.52900
      C    C644    -5.30200   23.87800    9.43600
      C    C645    -7.20800   22.47600    8.70600
      N    N646    -4.61300   18.90700    7.26600
      C    C647    -3.65500   18.13700    6.46800
      C    C648    -2.93900   19.09500    5.50700
      O    O649    -3.37500   20.23200    5.32700
      C    C650    -4.34100   16.99800    5.68800
      O    O651    -5.34500   17.54100    4.81300
      C    C652    -4.98200   15.99600    6.64000
      N    N653    -1.83000   18.64400    4.92400
      C    C654    -1.15700   19.38200    3.86800
      C    C655    -1.41000   18.64500    2.55900
      O    O656    -1.20800   17.43800    2.47400
      C    C657     0.34000   19.49600    4.13400
      C    C658     0.73400   20.55500    5.16000
      C    C659     2.16200   20.27900    5.62400
      C    C660     0.58900   21.94400    4.52900
      N    N661    -1.88100   19.37800    1.55000
      C    C662    -2.25600   18.77800    0.27100
      C    C663    -1.66500   19.58100   -0.88000
      O    O664    -1.51300   20.78100   -0.76400
      C    C665    -3.80100   18.67100    0.11400
      C    C666    -4.36700   17.74400    1.18800
      C    C667    -4.48300   20.02700    0.18900
      N    N668    -1.34000   18.91000   -1.98600
      C    C669    -0.83100   19.60700   -3.17700
      C    C670    -1.30900   18.94300   -4.44600
      O    O671    -0.93500   19.31700   -5.55200
      C    C672     0.69200   19.66100   -3.16100
      O    O673     1.24000   18.36600   -3.30900
      O    O674    -2.08200   17.99300   -4.35900
