# CIF file generated by openbabel 2.3.2, see http://openbabel.sf.net
data_I
_chemical_name_common '../proteins/pdb/4KXR.pdb'
_cell_length_a 139.1
_cell_length_b 139.1
_cell_length_c 171.01
_cell_angle_alpha 90
_cell_angle_beta 90
_cell_angle_gamma 120
_space_group_name_H-M_alt 'P 61 2 2'
_space_group_name_Hall 'P 61 2 (0 0 -1)'
loop_
    _symmetry_equiv_pos_as_xyz
    'x,y,z'
    '-y,x-y,1/3+z'
    '-x+y,-x,2/3+z'
    '-x,-y,1/2+z'
    'y,-x+y,5/6+z'
    'x-y,x,1/6+z'
    'y,x,1/3-z'
    'x-y,-y,-z'
    '-x,-x+y,2/3-z'
    '-y,-x,5/6-z'
    '-x+y,y,1/2-z'
    'x,x-y,1/6-z'
loop_
    _atom_site_type_symbol
    _atom_site_label
    _atom_site_Cartn_x
    _atom_site_Cartn_y
    _atom_site_Cartn_z
      N    N1    94.30400   -8.98800  -19.48300
      C    C2    93.00000   -8.32700  -19.79000
      C    C3    92.17100   -8.14400  -18.51600
      O    O4    91.68800   -9.11100  -17.94500
      C    C5    92.20600   -9.12500  -20.84600
      C    C6    91.33400   -8.23900  -21.73200
      O    O7    91.06000   -7.08300  -21.40600
      N    N8    90.90500   -8.78100  -22.87000
      N    N9    92.02600   -6.89200  -18.05000
      C    C10    91.13200   -6.63400  -16.91500
      C    C11    89.70600   -7.06500  -17.19800
      O    O12    89.15500   -7.84400  -16.43500
      C    C13    91.19300   -5.10500  -16.73600
      C    C14    92.44100   -4.67300  -17.42300
      C    C15    92.71200   -5.67000  -18.51400
      N    N16    89.13000   -6.58300  -18.30000
      C    C17    87.71600   -6.82700  -18.61500
      C    C18    87.30400   -8.28900  -18.49500
      O    O19    86.15000   -8.57400  -18.20600
      C    C20    87.34700   -6.33700  -20.02500
      C    C21    87.19700   -4.82600  -20.18200
      C    C22    88.35200   -4.17000  -20.92900
      O    O23    89.44200   -4.78400  -21.02700
      O    O24    88.17100   -3.02800  -21.41600
      N    N25    88.23600   -9.20500  -18.73800
      C    C26    87.95300  -10.63900  -18.67400
      C    C27    87.58100  -11.09000  -17.26100
      O    O28    86.70200  -11.93600  -17.08200
      C    C29    89.14500  -11.42800  -19.18300
      N    N30    88.24900  -10.52300  -16.26200
      C    C31    87.92500  -10.80600  -14.86300
      C    C32    86.52700  -10.29600  -14.50500
      O    O33    85.78600  -10.97600  -13.80600
      C    C34    88.97300  -10.18800  -13.92200
      C    C35    90.37400  -10.80800  -13.96600
      C    C36    91.42500   -9.94100  -13.28000
      C    C37    90.34700  -12.19900  -13.35500
      N    N38    86.18900   -9.09900  -14.97900
      C    C39    84.88200   -8.49500  -14.73700
      C    C40    83.80600   -9.38600  -15.34600
      O    O41    82.81800   -9.70700  -14.67600
      C    C42    84.82400   -7.05000  -15.29100
      O    O43    85.39700   -6.14700  -14.33400
      C    C44    83.41200   -6.59200  -15.59600
      N    N45    84.01800   -9.82300  -16.58700
      C    C46    83.06200  -10.68200  -17.28800
      C    C47    82.83000  -11.95600  -16.50000
      O    O48    81.68800  -12.39400  -16.35300
      C    C49    83.53100  -11.00300  -18.72700
      C    C50    82.80000  -12.19100  -19.34300
      C    C51    83.34000   -9.78200  -19.60500
      N    N52    83.91000  -12.52900  -15.98200
      C    C53    83.85200  -13.78700  -15.24000
      C    C54    83.07500  -13.65900  -13.92100
      O    O55    82.30100  -14.56600  -13.54400
      C    C56    85.26600  -14.29700  -14.96600
      N    N57    83.30900  -12.54400  -13.21400
      C    C58    82.57800  -12.23300  -11.98100
      C    C59    81.07600  -12.22200  -12.23800
      O    O60    80.31100  -12.81700  -11.48600
      C    C61    83.01800  -10.89200  -11.43400
      N    N62    80.65800  -11.55700  -13.31300
      C    C63    79.24400  -11.51700  -13.67300
      C    C64    78.70400  -12.91000  -13.91800
      O    O65    77.62100  -13.23200  -13.44800
      C    C66    78.98000  -10.67000  -14.93000
      O    O67    79.42000   -9.33500  -14.70100
      C    C68    77.49700  -10.64000  -15.26200
      N    N69    79.46400  -13.71700  -14.65900
      C    C70    79.03400  -15.08400  -15.00400
      C    C71    79.00700  -15.98100  -13.79600
      O    O72    78.14600  -16.84900  -13.71800
      C    C73    79.91400  -15.72700  -16.08200
      C    C74    79.68000  -15.16100  -17.47100
      C    C75    80.81300  -15.44400  -18.44400
      O    O76    81.62200  -16.36800  -18.16800
      O    O77    80.87600  -14.73800  -19.48500
      N    N78    79.94000  -15.76800  -12.86300
      C    C79    79.98700  -16.55900  -11.63200
      C    C80    78.80000  -16.24700  -10.74000
      O    O81    78.23700  -17.16700  -10.14300
      C    C82    81.30900  -16.37600  -10.85700
      C    C83    81.20400  -16.94700   -9.45100
      C    C84    82.44400  -17.07100  -11.58900
      N    N85    78.41700  -14.97000  -10.64000
      C    C86    77.19000  -14.59500   -9.87800
      C    C87    75.90300  -15.10300  -10.54400
      O    O88    74.93800  -15.44400   -9.86700
      C    C89    77.10500  -13.08000   -9.63500
      C    C90    78.15800  -12.58100   -8.65100
      C    C91    78.10800  -11.07600   -8.41900
      N    N92    79.08700  -10.66400   -7.40200
      C    C93    80.15400   -9.88000   -7.60600
      N    N94    80.44200   -9.36000   -8.80600
      N    N95    80.94900   -9.61100   -6.58100
      N    N96    75.89600  -15.15200  -11.86900
      C    C97    74.76700  -15.69700  -12.59300
      C    C98    74.62700  -17.20900  -12.28000
      O    O99    73.52600  -17.70200  -12.03800
      C    C100    74.92300  -15.42100  -14.09600
      C    C101    73.60100  -15.34500  -14.84400
      C    C102    73.77300  -15.48400  -16.35700
      N    N103    74.49800  -14.35300  -16.96400
      C    C104    75.59500  -14.44000  -17.73000
      N    N105    76.15400  -15.62000  -18.02500
      N    N106    76.14200  -13.32400  -18.21500
      N    N107    75.75000  -17.91700  -12.23500
      C    C108    75.77200  -19.32400  -11.88000
      C    C109    75.32900  -19.54400  -10.44100
      O    O110    74.58300  -20.49600  -10.15900
      C    C111    77.17900  -19.91500  -12.04900
      C    C112    77.54500  -19.99700  -13.53100
      C    C113    77.24800  -21.30200  -11.44100
      C    C114    78.99000  -20.35400  -13.80500
      N    N115    75.79600  -18.66800   -9.53700
      C    C116    75.32500  -18.63500   -8.15200
      C    C117    73.80500  -18.48800   -8.04600
      O    O118    73.18100  -19.21200   -7.29400
      C    C119    76.01300  -17.51500   -7.37500
      C    C120    75.58500  -17.38300   -5.91700
      C    C121    76.34500  -16.26900   -5.20600
      N    N122    75.66600  -15.85500   -3.97300
      C    C123    74.57700  -15.09000   -3.92900
      N    N124    74.04100  -14.63100   -5.05400
      N    N125    74.01000  -14.79300   -2.76300
      N    N126    73.21000  -17.55500   -8.78600
      C    C127    71.75300  -17.35700   -8.74700
      C    C128    71.03100  -18.63900   -9.11600
      O    O129    70.00300  -18.96100   -8.53400
      C    C130    71.29800  -16.27100   -9.73000
      C    C131    71.70900  -14.88400   -9.30200
      O    O132    72.00700  -14.68600   -8.10700
      O    O133    71.73000  -13.98300  -10.16900
      N    N134    71.57700  -19.35000  -10.10400
      C    C135    70.95900  -20.55300  -10.61100
      C    C136    71.00500  -21.66800   -9.56600
      O    O137    70.02800  -22.37000   -9.35600
      C    C138    71.63100  -20.98400  -11.91700
      C    C139    70.79300  -22.01300  -12.64000
      C    C140    71.36500  -22.47400  -13.96800
      N    N141    70.42800  -23.41400  -14.58200
      C    C142    70.51000  -23.86300  -15.83100
      N    N143    71.50100  -23.47200  -16.61600
      N    N144    69.59400  -24.71100  -16.29800
      N    N145    72.14000  -21.81400   -8.89500
      C    C146    72.24500  -22.78000   -7.82500
      C    C147    71.25600  -22.41900   -6.71100
      O    O148    70.46700  -23.25700   -6.28400
      C    C149    73.66000  -22.84400   -7.31400
      N    N150    71.25300  -21.16500   -6.27400
      C    C151    70.31100  -20.72700   -5.23500
      C    C152    68.84200  -20.92600   -5.63400
      O    O153    68.01900  -21.33100   -4.82500
      C    C154    70.54300  -19.25500   -4.89600
      C    C155    71.85500  -19.11500   -4.12900
      C    C156    69.38400  -18.66900   -4.09200
      C    C157    72.37500  -17.69200   -4.10400
      N    N158    68.52700  -20.65100   -6.89000
      C    C159    67.15800  -20.67900   -7.35800
      C    C160    66.64100  -22.11800   -7.41400
      O    O161    65.50700  -22.38100   -6.99500
      C    C162    67.05800  -19.96400   -8.71300
      C    C163    65.67600  -19.89700   -9.35300
      C    C164    64.60700  -19.30400   -8.43700
      O    O165    64.91000  -18.53600   -7.50700
      N    N166    63.34200  -19.66500   -8.69300
      N    N167    67.46800  -23.05300   -7.89400
      C    C168    67.02400  -24.43600   -8.04500
      C    C169    66.81600  -25.07700   -6.68300
      O    O170    65.83100  -25.77900   -6.46400
      C    C171    68.01400  -25.26000   -8.83700
      O    O172    69.24100  -25.34200   -8.15400
      N    N173    67.73600  -24.82200   -5.75900
      C    C174    67.55500  -25.24900   -4.38000
      C    C175    66.18200  -24.85300   -3.85300
      O    O176    65.41600  -25.71100   -3.40200
      C    C177    68.61600  -24.63200   -3.48500
      C    C178    68.39300  -24.94100   -2.02900
      O    O179    68.26300  -26.14500   -1.69100
      O    O180    68.35000  -23.98500   -1.23300
      N    N181    65.87900  -23.56000   -3.93200
      C    C182    64.63700  -23.01500   -3.37400
      C    C183    63.40700  -23.53300   -4.07500
      O    O184    62.43100  -23.86600   -3.42400
      C    C185    64.64100  -21.50400   -3.44200
      N    N186    63.44500  -23.59600   -5.40000
      C    C187    62.26900  -24.00300   -6.15500
      C    C188    61.69100  -25.33200   -5.64200
      O    O189    60.49400  -25.43600   -5.43200
      C    C190    62.57900  -24.09800   -7.64000
      C    C191    61.47800  -23.55800   -8.53900
      C    C192    62.03000  -23.13100   -9.90000
      O    O193    62.85200  -22.19900  -10.00100
      N    N194    61.59300  -23.81600  -10.95800
      N    N195    62.55800  -26.30800   -5.38300
      C    C196    62.13100  -27.67800   -5.09200
      C    C197    62.19200  -28.09900   -3.63200
      O    O198    61.73100  -29.19000   -3.30400
      C    C199    62.92000  -28.70800   -5.92100
      C    C200    62.70900  -28.42800   -7.40400
      C    C201    64.40600  -28.73300   -5.54300
      N    N202    62.72800  -27.23100   -2.77200
      C    C203    62.84600  -27.48900   -1.32400
      C    C204    61.55600  -27.92900   -0.67300
      O    O205    61.58000  -28.79500    0.17300
      C    C206    63.36500  -26.25100   -0.60300
      N    N207    60.42200  -27.32700   -1.05100
      C    C208    59.17800  -27.81100   -0.45300
      C    C209    58.85400  -29.27000   -0.77400
      O    O210    58.22300  -29.95700    0.03500
      C    C211    58.11000  -26.87700   -1.03500
      C    C212    58.85700  -25.68000   -1.53800
      C    C213    60.20700  -26.16500   -1.93500
      N    N214    59.30200  -29.75000   -1.92000
      C    C215    59.05200  -31.13000   -2.30400
      C    C216    60.03100  -32.10500   -1.64500
      O    O217    59.63000  -33.20700   -1.25100
      C    C218    59.10700  -31.27200   -3.82900
      C    C219    58.00500  -30.53700   -4.56900
      S    S220    56.44100  -31.37700   -4.24500
      C    C221    55.52300  -30.96000   -5.74100
      N    N222    61.30000  -31.72400   -1.49700
      C    C223    62.27600  -32.66000   -0.92400
      C    C224    62.07200  -32.82100    0.55700
      O    O225    62.32800  -33.89100    1.10300
      C    C226    63.74000  -32.28400   -1.20100
      O    O227    64.01300  -30.91200   -0.84400
      C    C228    64.02700  -32.47400   -2.64200
      N    N229    61.59400  -31.76800    1.21000
      C    C230    61.45000  -31.79100    2.66100
      C    C231    60.06300  -32.21300    3.10800
      O    O232    59.86900  -32.42900    4.27400
      C    C233    61.78200  -30.43000    3.29500
      O    O234    60.78900  -29.48800    2.90200
      C    C235    63.18800  -29.92500    2.84600
      N    N236    59.11000  -32.35700    2.19100
      C    C237    57.75900  -32.84400    2.55600
      C    C238    57.56800  -34.38500    2.51300
      O    O239    56.43400  -34.87500    2.40600
      C    C240    56.73000  -32.19300    1.65000
      N    N241    58.65000  -35.15200    2.57800
      C    C242    58.51300  -36.59400    2.47400
      C    C243    57.86700  -37.16500    3.72700
      O    O244    58.36700  -36.98900    4.83200
      C    C245    59.85500  -37.30300    2.28400
      C    C246    59.62300  -38.80100    2.20800
      C    C247    60.52900  -36.84300    1.01100
      N    N248    56.77000  -37.87400    3.54000
      C    C249    56.12600  -38.60700    4.61800
      C    C250    56.38900  -40.10200    4.46800
      O    O251    56.55100  -40.60100    3.34200
      C    C252    54.64100  -38.36800    4.57400
      C    C253    54.29500  -36.90300    4.74600
      C    C254    52.82000  -36.72300    5.09600
      N    N255    51.93000  -36.79800    3.92700
      C    C256    50.65900  -37.22200    3.94300
      N    N257    50.07100  -37.67000    5.06100
      N    N258    49.96700  -37.20900    2.81100
      N    N259    56.42100  -40.82900    5.60100
      C    C260    56.43300  -42.28400    5.54300
      C    C261    55.20000  -42.82600    4.80000
      O    O262    54.08500  -42.40600    5.08100
      C    C263    56.37600  -42.70800    7.01500
      C    C264    56.61900  -41.48100    7.83600
      C    C265    56.28800  -40.31000    6.97700
      N    N266    55.39600  -43.76200    3.86500
      C    C267    54.28000  -44.29000    3.08100
      C    C268    53.33800  -45.16700    3.88200
      O    O269    52.19300  -45.38800    3.45200
      C    C270    54.97100  -45.11600    1.99300
      C    C271    56.28200  -45.48300    2.60000
      C    C272    56.68800  -44.28500    3.40200
      N    N273    53.81900  -45.66400    5.02500
      C    C274    52.99600  -46.41700    5.95400
      C    C275    53.42700  -46.12500    7.40500
      O    O276    54.27400  -45.27200    7.64200
      C    C277    53.07600  -47.89500    5.63200
      N    N278    52.83300  -46.82600    8.36900
      C    C279    53.03300  -46.52400    9.79000
      C    C280    54.15800  -47.33700   10.41600
      O    O281    54.45700  -47.18500   11.57900
      C    C282    51.74100  -46.76600   10.56400
      N    N283    54.76800  -48.22300    9.65700
      C    C284    55.84000  -49.05600   10.19800
      C    C285    57.12600  -48.25200   10.38500
      O    O286    57.29800  -47.17700    9.84000
      C    C287    56.13100  -50.19400    9.24500
      C    C288    56.69700  -49.70000    7.97300
      O    O289    55.92500  -49.16500    7.15100
      O    O290    57.93300  -49.77900    7.81800
      N    N291    58.04200  -48.83200   11.12900
      C    C292    59.29700  -48.20200   11.45000
      C    C293    60.29700  -48.15800   10.27300
      O    O294    61.15500  -47.27200   10.24100
      C    C295    59.89700  -48.90000   12.67800
      C    C296    61.33800  -48.57900   13.10500
      C    C297    61.49600  -47.12400   13.57300
      C    C298    61.78300  -49.56400   14.18800
      N    N299    60.19900  -49.07300    9.30400
      C    C300    61.08800  -49.01300    8.14100
      C    C301    60.74500  -47.79700    7.28100
      O    O302    61.61100  -47.02200    6.87100
      C    C303    61.01800  -50.29100    7.30200
      C    C304    61.82500  -50.12600    6.01300
      C    C305    61.50900  -51.51400    8.08700
      N    N306    59.45500  -47.63000    7.02600
      C    C307    58.93800  -46.49300    6.28200
      C    C308    59.33900  -45.17500    6.92000
      O    O309    59.70700  -44.19900    6.22300
      C    C310    57.41100  -46.59500    6.18200
      O    O311    57.01600  -47.76500    5.45400
      N    N312    59.28400  -45.13300    8.24700
      C    C313    59.58400  -43.90100    8.93500
      C    C314    61.06800  -43.62600    8.86500
      O    O315    61.44400  -42.49700    8.64900
      C    C316    59.09100  -43.92200   10.38300
      C    C317    59.22300  -42.57800   11.10200
      C    C318    60.58700  -42.37000   11.75900
      O    O319    61.27600  -43.38500   12.01600
      O    O320    60.97300  -41.19700   12.03400
      N    N321    61.91000  -44.64100    9.03600
      C    C322    63.36300  -44.42800    8.98000
      C    C323    63.78400  -43.89400    7.60300
      O    O324    64.67300  -43.03200    7.51500
      C    C325    64.15400  -45.68200    9.42100
      C    C326    65.39100  -46.03300    8.58300
      C    C327    66.03700  -47.36200    9.03100
      C    C328    66.91000  -48.05100    7.96300
      N    N329    66.58400  -49.51200    7.81000
      N    N330    63.10400  -44.35900    6.55000
      C    C331    63.35600  -43.89800    5.19000
      C    C332    62.95100  -42.44600    4.98800
      O    O333    63.71000  -41.65100    4.42800
      C    C334    62.62000  -44.77300    4.18700
      N    N335    61.74000  -42.10700    5.41000
      C    C336    61.22000  -40.74700    5.21900
      C    C337    62.07100  -39.77200    6.04100
      O    O338    62.57500  -38.78000    5.53300
      C    C339    59.74900  -40.67700    5.60700
      N    N340    62.30600  -40.10700    7.30300
      C    C341    63.15500  -39.27900    8.13500
      C    C342    64.56000  -39.05900    7.53800
      O    O343    65.08600  -37.96200    7.60000
      C    C344    63.20300  -39.82800    9.57500
      O    O345    61.88500  -39.75000   10.13700
      C    C346    64.16900  -39.02800   10.44500
      N    N347    65.16700  -40.08700    6.95900
      C    C348    66.49800  -39.94100    6.34400
      C    C349    66.44600  -38.95800    5.17600
      O    O350    67.31400  -38.12000    5.04500
      C    C351    67.01200  -41.30800    5.85900
      C    C352    68.40500  -41.28300    5.28300
      C    C353    68.65200  -40.74500    4.03300
      C    C354    69.45700  -41.85400    5.96800
      C    C355    69.93000  -40.74300    3.49900
      C    C356    70.74300  -41.84500    5.44500
      C    C357    70.97600  -41.28800    4.21200
      N    N358    65.41800  -39.07400    4.33300
      C    C359    65.28800  -38.26300    3.11700
      C    C360    65.05500  -36.80200    3.43900
      O    O361    65.58000  -35.93700    2.75800
      C    C362    64.17800  -38.80700    2.22600
      C    C363    64.55500  -40.15700    1.61700
      C    C364    63.35600  -40.87400    1.07200
      C    C365    65.58300  -40.01400    0.51700
      N    N366    64.30400  -36.53000    4.49700
      C    C367    64.09000  -35.17300    4.94700
      C    C368    65.39500  -34.58100    5.47200
      O    O369    65.76500  -33.46500    5.10700
      C    C370    62.99700  -35.10000    6.02700
      C    C371    62.83600  -33.67300    6.56700
      C    C372    61.67500  -35.57600    5.44900
      N    N373    66.10400  -35.32100    6.30800
      C    C374    67.35200  -34.81700    6.85100
      C    C375    68.35900  -34.62600    5.71500
      O    O376    69.05500  -33.59800    5.67200
      C    C377    67.88400  -35.70900    7.98900
      C    C378    69.08000  -35.12600    8.77200
      C    C379    68.83700  -33.81300    9.57300
      O    O380    67.71800  -33.56400   10.07400
      O    O381    69.80300  -33.02200    9.74300
      N    N382    68.35900  -35.55100    4.75200
      C    C383    69.27000  -35.49600    3.59500
      C    C384    69.00600  -34.26200    2.73100
      O    O385    69.93200  -33.56300    2.31800
      C    C386    69.12700  -36.75800    2.77600
      C    C387    70.28500  -37.13600    1.88100
      C    C388    71.51400  -37.48700    2.41200
      C    C389    70.12700  -37.22600    0.50000
      C    C390    72.58200  -37.86900    1.60100
      C    C391    71.17700  -37.62300   -0.31300
      C    C392    72.40800  -37.94300    0.24000
      O    O393    73.45300  -38.34600   -0.56000
      N    N394    67.74400  -33.96400    2.48500
      C    C395    67.39600  -32.70200    1.84400
      C    C396    67.87100  -31.48200    2.65300
      O    O397    68.35000  -30.50300    2.08300
      C    C398    65.90100  -32.62800    1.64100
      N    N399    67.74200  -31.52200    3.98100
      C    C400    68.12500  -30.35100    4.77900
      C    C401    69.63700  -30.09800    4.68800
      O    O402    70.06200  -28.94100    4.55300
      C    C403    67.65900  -30.47400    6.22700
      C    C404    66.14300  -30.44700    6.38300
      C    C405    65.75000  -30.02000    7.79200
      N    N406    64.49300  -30.61600    8.28500
      C    C407    63.26300  -30.26300    7.90300
      N    N408    63.08400  -29.32400    6.97400
      N    N409    62.20000  -30.87100    8.43900
      N    N410    70.42200  -31.18400    4.74000
      C    C411    71.87900  -31.11300    4.65500
      C    C412    72.32000  -30.70100    3.27700
      O    O413    73.30400  -29.97300    3.13800
      C    C414    72.52600  -32.43400    5.03900
      C    C415    72.74800  -32.54500    6.52700
      C    C416    72.71200  -33.97800    7.01600
      C    C417    72.87800  -34.01500    8.53200
      N    N418    72.65900  -35.36400    9.11300
      N    N419    71.59700  -31.13400    2.24700
      C    C420    71.87800  -30.63700    0.91400
      C    C421    71.69300  -29.12200    0.86600
      O    O422    72.48300  -28.44000    0.23400
      C    C423    71.04300  -31.34400   -0.17500
      C    C424    71.21600  -30.73300   -1.55800
      C    C425    72.30800  -31.06700   -2.36900
      C    C426    70.31900  -29.78800   -2.02500
      C    C427    72.47700  -30.49400   -3.61100
      C    C428    70.46800  -29.21500   -3.26100
      C    C429    71.53300  -29.57400   -4.06300
      O    O430    71.64100  -28.98000   -5.31100
      N    N431    70.67700  -28.59600    1.54100
      C    C432    70.42300  -27.13400    1.51200
      C    C433    71.50300  -26.32000    2.20700
      O    O434    71.89100  -25.27300    1.70200
      C    C435    69.06300  -26.76400    2.10100
      C    C436    67.89200  -27.32700    1.31500
      C    C437    66.61400  -26.57800    1.61100
      N    N438    66.60600  -25.31800    0.88300
      C    C439    65.74400  -24.33500    1.08800
      N    N440    64.79800  -24.44400    2.01600
      N    N441    65.84400  -23.23500    0.35300
      N    N442    71.97700  -26.79200    3.35400
      C    C443    73.15300  -26.19500    3.99800
      C    C444    74.29800  -26.16000    3.01000
      O    O445    74.95300  -25.13200    2.86300
      C    C446    73.57400  -26.98000    5.23700
      C    C447    72.71500  -26.69000    6.45400
      C    C448    72.70200  -27.80600    7.48000
      O    O449    73.54500  -28.72200    7.45800
      N    N450    71.72500  -27.74900    8.38500
      N    N451    74.49400  -27.27100    2.29800
      C    C452    75.61900  -27.42000    1.38600
      C    C453    75.61100  -26.40900    0.24500
      O    O454    76.66900  -25.91700   -0.15300
      C    C455    75.67800  -28.84900    0.84200
      O    O456    75.95400  -29.74900    1.92400
      C    C457    76.75200  -28.99800   -0.15600
      N    N458    74.43400  -26.08600   -0.28600
      C    C459    74.33900  -25.19500   -1.44600
      C    C460    74.50600  -23.76400   -0.94000
      O    O461    75.13100  -22.94300   -1.59600
      C    C462    72.99800  -25.37500   -2.20700
      C    C463    72.90900  -26.75500   -2.83700
      C    C464    72.82000  -24.34500   -3.31400
      C    C465    73.79400  -26.96300   -4.03900
      N    N466    73.95100  -23.47500    0.23200
      C    C467    74.18200  -22.19200    0.89400
      C    C468    75.68100  -21.96200    1.06700
      O    O469    76.18500  -20.87900    0.75700
      C    C470    73.46600  -22.12100    2.24800
      N    N471    76.40100  -22.98300    1.52800
      C    C472    77.85600  -22.85600    1.68600
      C    C473    78.52500  -22.60800    0.34000
      O    O474    79.37800  -21.72800    0.22600
      C    C475    78.45200  -24.08000    2.36800
      N    N476    78.12200  -23.36600   -0.68200
      C    C477    78.68600  -23.20900   -2.02200
      C    C478    78.33700  -21.85300   -2.64600
      O    O479    79.03900  -21.41000   -3.55100
      C    C480    78.23600  -24.33600   -2.93300
      N    N481    77.27400  -21.19500   -2.18200
      C    C482    76.91800  -19.86300   -2.69800
      C    C483    77.74100  -18.76800   -2.01300
      O    O484    78.00200  -17.71600   -2.59400
      C    C485    75.43400  -19.59900   -2.51700
      N    N486    78.11700  -19.00700   -0.75600
      C    C487    79.12300  -18.18900   -0.10100
      C    C488    80.45200  -18.32300   -0.86200
      O    O489    81.03000  -17.33000   -1.28100
      C    C490    79.27800  -18.54800    1.39400
      C    C491    80.57600  -17.96300    1.96100
      C    C492    78.07000  -18.04000    2.18100
      N    N493    80.91800  -19.54400   -1.07200
      C    C494    82.16100  -19.76300   -1.81200
      C    C495    82.16300  -19.10300   -3.19100
      O    O496    83.19700  -18.57100   -3.60300
      C    C497    82.50400  -21.26000   -1.93300
      C    C498    83.59700  -21.50400   -2.96100
      C    C499    82.94300  -21.78500   -0.58300
      N    N500    81.03600  -19.10600   -3.89400
      C    C501    80.99200  -18.49000   -5.22700
      C    C502    80.99700  -16.95900   -5.16000
      O    O503    81.63800  -16.29900   -5.97200
      C    C504    79.78600  -18.98300   -6.03500
      C    C505    79.87300  -20.41800   -6.52900
      C    C506    78.53100  -20.94400   -7.02100
      C    C507    80.92000  -20.53600   -7.61300
      N    N508    80.27700  -16.39900   -4.19500
      C    C509    80.20100  -14.95800   -4.05700
      C    C510    81.58800  -14.42100   -3.75100
      O    O511    81.98000  -13.39500   -4.30000
      C    C512    79.16800  -14.55700   -2.97800
      C    C513    79.03700  -13.05900   -2.66600
      C    C514    78.90600  -12.18200   -3.91000
      O    O515    78.09300  -12.51100   -4.80600
      O    O516    79.62000  -11.16000   -4.00500
      N    N517    82.34400  -15.11100   -2.89700
      C    C518    83.70400  -14.64800   -2.55300
      C    C519    84.63200  -14.77500   -3.75800
      O    O520    85.57300  -14.01900   -3.89300
      C    C521    84.28800  -15.40800   -1.34400
      C    C522    83.97600  -14.80900    0.03700
      C    C523    83.73300  -15.86000    1.13400
      O    O524    83.60100  -17.13000    0.76400
      O    O525    83.64300  -15.39900    2.36900
      N    N526    84.36300  -15.73000   -4.63600
      C    C527    85.13600  -15.84000   -5.87300
      C    C528    84.86800  -14.63400   -6.76300
      O    O529    85.79700  -14.01300   -7.28700
      C    C530    84.78300  -17.11600   -6.61100
      C    C531    85.66200  -17.41700   -7.79300
      C    C532    87.00000  -17.08400   -7.80500
      C    C533    85.14400  -18.11700   -8.88200
      C    C534    87.79200  -17.40500   -8.88300
      C    C535    85.93000  -18.42900   -9.96300
      C    C536    87.25600  -18.07700   -9.96400
      N    N537    83.58800  -14.30200   -6.90800
      C    C538    83.16800  -13.15800   -7.70400
      C    C539    83.75600  -11.86500   -7.14400
      O    O540    84.29100  -11.05300   -7.89500
      C    C541    81.64700  -13.09300   -7.75900
      N    N542    83.68700  -11.68900   -5.82600
      C    C543    84.30700  -10.52900   -5.19000
      C    C544    85.81500  -10.46200   -5.47500
      O    O545    86.36300   -9.38400   -5.69700
      C    C546    84.05700  -10.51000   -3.67500
      C    C547    84.64600   -9.31100   -2.98600
      N    N548    83.89100   -8.21900   -2.61100
      C    C549    85.92000   -9.03000   -2.62000
      C    C550    84.67500   -7.31900   -2.04400
      N    N551    85.91000   -7.78600   -2.04000
      N    N552    86.48300  -11.60800   -5.46500
      C    C553    87.92100  -11.65000   -5.68700
      C    C554    88.25900  -11.26600   -7.11700
      O    O555    89.19700  -10.48700   -7.34000
      C    C556    88.46400  -13.03100   -5.35900
      N    N557    87.49500  -11.79100   -8.07600
      C    C558    87.65000  -11.45300   -9.48500
      C    C559    87.43800   -9.95100   -9.76500
      O    O560    88.16900   -9.34600  -10.56200
      C    C561    86.67100  -12.25400  -10.32100
      C    C562    86.90100  -13.76900  -10.41000
      C    C563    85.73000  -14.45300  -11.09600
      C    C564    88.19900  -14.08200  -11.13600
      N    N565    86.44100   -9.35900   -9.10600
      C    C566    86.15300   -7.92800   -9.21900
      C    C567    87.30900   -7.09100   -8.70200
      O    O568    87.80800   -6.19500   -9.40700
      C    C569    84.89100   -7.57700   -8.42200
      O    O570    83.82200   -8.38000   -8.90000
      C    C571    84.50600   -6.12800   -8.57900
      N    N572    87.71700   -7.38500   -7.46600
      C    C573    88.82800   -6.69100   -6.80600
      C    C574    90.11100   -6.90800   -7.60500
      O    O575    90.94900   -6.01700   -7.70100
      C    C576    89.01300   -7.19700   -5.36300
      O    O577    87.73400   -7.31900   -4.73200
      C    C578    89.85700   -6.25400   -4.54400
      N    N579    90.26200   -8.09500   -8.19000
      C    C580    91.36500   -8.33300   -9.12500
      C    C581    91.32700   -7.38900  -10.32600
      O    O582    92.34700   -6.81800  -10.70700
      N    N583    90.13800   -7.21600  -10.90400
      C    C584    89.94600   -6.39400  -12.09700
      C    C585    90.16100   -4.90200  -11.84200
      O    O586    90.61000   -4.19600  -12.74300
      C    C587    88.55800   -6.62600  -12.67500
      N    N588    89.83200   -4.43200  -10.63200
      C    C589    89.99900   -3.00700  -10.25600
      C    C590    91.45900   -2.66200   -9.92000
      O    O591    91.81100   -1.48900   -9.87200
      C    C592    89.07900   -2.60100   -9.08000
      C    C593    87.58900   -2.95900   -9.31900
      O    O594    87.25000   -3.50800  -10.39000
      O    O595    86.74700   -2.70300   -8.42700
      N    N596    92.29400   -3.68100   -9.69600
      C    C597    93.73000   -3.48600   -9.47800
      C    C598    94.48100   -3.33700  -10.78900
      O    O599    95.29100   -2.41500  -10.93200
      C    C600    94.33300   -4.63200   -8.65300
      C    C601    94.49200   -4.28600   -7.17700
      C    C602    94.11100   -5.42900   -6.24400
      C    C603    93.56200   -4.89800   -4.92200
      N    N604    93.24000   -5.97000   -3.94100
      N    N605    94.21700   -4.23200  -11.74100
      C    C606    94.87100   -4.17700  -13.05900
      C    C607    94.28900   -3.07300  -13.96000
      O    O608    94.95600   -2.62400  -14.89100
      C    C609    94.82300   -5.54300  -13.76500
      C    C610    95.61400   -6.62500  -13.05000
      C    C611    95.03700   -7.36200  -12.01900
      C    C612    96.93800   -6.90400  -13.39100
      C    C613    95.74300   -8.34600  -11.34400
      C    C614    97.65600   -7.88900  -12.72200
      C    C615    97.04900   -8.60800  -11.69800
      O    O616    97.72900   -9.59200  -11.01800
      N    N617    93.06000   -2.63400  -13.68200
      C    C618    92.47100   -1.47800  -14.37800
      C    C619    92.96900   -0.15200  -13.78700
      O    O620    93.17800    0.81500  -14.52200
      C    C621    90.95200   -1.53600  -14.33600
      N    N622    93.15600   -0.11500  -12.46400
      C    C623    93.74200    1.04900  -11.78000
      C    C624    95.26900    0.89900  -11.70900
      O    O625    95.88200    1.11700  -10.66200
      C    C626    93.16600    1.23900  -10.34900
      O    O627    91.77300    0.90300  -10.32900
      C    C628    93.34200    2.69100   -9.86900
      N    N629    95.87400    0.52500  -12.83400
      C    C630    97.32500    0.39100  -12.94000
      C    C631    97.76900    0.64000  -14.38600
      O    O632    98.59100   -0.09900  -14.93100
      C    C633    97.75600   -0.99200  -12.46700
      N    N634    97.22100    1.69400  -14.99600
      C    C635    97.39200    1.95800  -16.42800
      C    C636    97.57200    3.44900  -16.70300
      O    O637    97.97100    4.21200  -15.82500
      C    C638    96.17700    1.44100  -17.21300
      C    C639    95.81200   -0.02400  -16.96400
      C    C640    94.57200   -0.46900  -17.72800
      O    O641    93.99400    0.35900  -18.46300
      O    O642    94.16800   -1.64800  -17.59900
