# CIF file generated by openbabel 2.3.2, see http://openbabel.sf.net
data_I
_chemical_name_common '../proteins/pdb/4OW1.pdb'
_cell_length_a 66.23
_cell_length_b 89.93
_cell_length_c 78.09
_cell_angle_alpha 90
_cell_angle_beta 115.08
_cell_angle_gamma 90
_space_group_name_H-M_alt 'P 1 21 1'
_space_group_name_Hall 'P 2yb'
loop_
    _symmetry_equiv_pos_as_xyz
    'x,y,z'
    '-x,1/2+y,-z'
loop_
    _atom_site_type_symbol
    _atom_site_label
    _atom_site_Cartn_x
    _atom_site_Cartn_y
    _atom_site_Cartn_z
      N    N1    29.01800   31.17600    6.11900
      C    C2    30.30700   30.42000    6.12100
      C    C3    30.09900   28.91300    6.25600
      O    O4    29.31300   28.45900    7.09400
      N    N5    30.76900   28.10700    5.40800
      C    C6    30.49600   26.61100    5.31700
      C    C7    30.65000   25.66600    6.55400
      O    O8    29.72100   24.86200    6.81700
      C    C9    31.26500   26.20900    4.00700
      C    C10    32.33200   27.26800    3.82700
      C    C11    31.91700   28.51400    4.57900
      N    N12    31.71500   25.71100    7.34900
      C    C13    31.87200   24.71200    8.46200
      C    C14    31.69900   23.23300    8.07200
      O    O15    30.63000   22.59100    8.35200
      C    C16    31.00600   25.00300    9.71700
      O    O17    30.79400   26.38600    9.88100
      N    N18    32.74800   22.66400    7.46100
      C    C19    32.78900   21.20600    7.26000
      C    C20    32.63900   20.56400    8.64100
      O    O21    33.22500   21.05800    9.61800
      C    C22    34.14800   20.95700    6.58800
      C    C23    34.88700   22.23400    6.62800
      C    C24    34.01500   23.32900    7.15200
      N    N25    31.82100   19.52900    8.75600
      C    C26    31.70800   18.82900   10.01200
      C    C27    32.80500   17.77200   10.07400
      O    O28    32.61300   16.62400    9.63200
      C    C29    30.31900   18.25800   10.19700
      C    C30    30.13600   17.61800   11.54700
      O    O31    31.08700   17.38800   12.29200
      N    N32    28.91300   17.35700   11.87400
      N    N33    34.00300   18.19000   10.52200
      C    C34    35.12800   17.23500   10.58600
      C    C35    34.93400   16.18200   11.68300
      O    O36    35.53400   15.13600   11.61200
      C    C37    36.44000   18.05300   10.81700
      C    C38    36.82800   18.90800    9.66700
      C    C39    36.92300   20.28000    9.63300
      C    C40    37.30600   18.45700    8.37100
      N    N41    37.39300   20.69200    8.38700
      C    C42    37.58900   19.59500    7.59600
      C    C43    37.44900   17.18100    7.75600
      C    C44    38.05000   19.50600    6.28400
      C    C45    37.85800   17.09000    6.43900
      C    C46    38.20600   18.24700    5.71800
      N    N47    34.06800   16.49300   12.68200
      C    C48    33.77900   15.45800   13.68900
      C    C49    33.03200   14.30200   13.02700
      O    O50    33.31600   13.14700   13.30500
      C    C51    33.00300   16.06700   14.79600
      C    C52    33.90500   17.04800   15.58900
      O    O53    34.99200   16.65300   16.01200
      O    O54    33.54600   18.22100   15.75300
      N    N55    32.09800   14.63400   12.15500
      C    C56    31.39400   13.63600   11.38900
      C    C57    32.34200   12.80800   10.45600
      O    O58    32.15100   11.56600   10.34500
      C    C59    30.25200   14.20000   10.62800
      N    N60    33.23900   13.45900    9.74700
      C    C61    34.22000   12.79900    8.90400
      C    C62    35.09200   11.88800    9.77500
      O    O63    35.42500   10.74200    9.39800
      C    C64    35.11500   13.79500    8.10400
      C    C65    36.13800   13.07700    7.29500
      C    C66    34.30600   14.70300    7.18800
      N    N67    35.50500   12.38900   10.92800
      C    C68    36.33200   11.51700   11.85000
      C    C69    35.59500   10.30700   12.35100
      O    O70    36.19400    9.28400   12.58500
      C    C71    36.92300   12.36100   12.97700
      N    N72    34.25500   10.40600   12.55300
      C    C73    33.50200    9.30900   12.99400
      C    C74    33.57000    8.19600   11.93900
      O    O75    33.77800    7.03000   12.24600
      C    C76    32.03600    9.76400   13.30100
      C    C77    30.99000    8.66100   13.62200
      C    C78    31.41000    7.76500   14.75700
      O    O79    31.99500    8.22800   15.72500
      N    N80    31.14600    6.48500   14.61800
      N    N81    33.39100    8.60300   10.70300
      C    C82    33.48500    7.72900    9.51300
      C    C83    33.44900    7.65900    9.59200
      C    C84    34.84000    7.07400    9.38900
      O    O85    34.96900    5.87700    9.12700
      C    C86    33.24300    8.56100    8.20300
      C    C87    32.94700    8.28100    8.33700
      S    S88    33.04200    7.63500    6.66100
      S    S89    31.24600    8.86700    8.36100
      N    N90    35.86400    7.89200    9.53300
      C    C91    37.24400    7.46400    9.27500
      C    C92    37.88100    6.61400   10.37500
      O    O93    38.55900    5.62200   10.04500
      C    C94    38.20400    8.64800    9.03500
      C    C95    38.14800    9.40100    7.68300
      C    C96    38.53700    8.59800    6.49400
      O    O97    39.09600    7.48100    6.61800
      O    O98    38.23200    9.03700    5.36800
      N    N99    37.70600    6.99100   11.61200
      C    C100    38.30700    6.38400   12.71200
      C    C101    37.38100    5.93300   13.86700
      O    O102    37.84200    5.55600   14.94200
      C    C103    39.29100    7.42300   13.36000
      O    O104    38.65900    8.55900   13.90000
      N    N105    36.06400    6.08500   13.74000
      C    C106    35.17800    5.91200   14.87500
      C    C107    35.30000    7.01700   15.89200
      O    O108    34.95900    6.80500   17.07500
      N    N109    35.77000    8.21700   15.49400
      C    C110    35.95100    9.33800   16.36400
      C    C111    37.19400    9.31300   17.29700
      O    O112    37.11700    9.85000   18.38300
      N    N113    38.19000    8.53700   16.92600
      C    C114    39.35300    8.37800   17.79300
      C    C115    40.45400    9.29100   17.24200
      O    O116    41.11500    8.95800   16.24400
      C    C117    39.78200    6.97900   17.81400
      C    C118    41.05300    6.81900   18.64100
      O    O119    41.47300    7.78200   19.34500
      N    N120    41.58700    5.66500   18.66300
      N    N121    40.57200   10.45700   17.80400
      C    C122    41.43800   11.48000   17.28900
      C    C123    42.92300   11.01300   17.43500
      O    O124    43.82100   11.61500   16.87700
      C    C125    41.20700   12.89400   17.93400
      C    C126    39.91700   13.55200   17.43600
      C    C127    38.71200   13.41000   17.97100
      C    C128    39.72300   14.14200   16.16400
      N    N129    37.77800   14.09700   17.21300
      C    C130    38.39800   14.53000   16.08800
      C    C131    40.58400   14.46000   15.12300
      C    C132    37.88600   15.17000   15.00100
      C    C133    40.09000   15.17100   14.05300
      C    C134    38.72700   15.50200   13.99100
      N    N135    43.16200   10.07200   18.31700
      C    C136    44.50300    9.49900   18.57700
      C    C137    44.68200    8.13800   17.87900
      O    O138    45.65100    7.44300   18.17600
      C    C139    44.75000    9.34100   20.07800
      N    N140    43.87600    7.81200   16.85100
      C    C141    44.00600    6.55300   16.22500
      C    C142    45.36700    6.30700   15.65800
      O    O143    45.91900    7.10900   14.86400
      C    C144    42.97800    6.38800   15.13100
      N    N145    45.87100    5.12700   15.94400
      C    C146    47.18400    4.71100   15.38700
      C    C147    47.27300    3.23800   15.44900
      O    O148    47.91600    2.65100   16.31900
      C    C149    48.35800    5.34600   16.16200
      C    C150    49.73000    4.99800   15.51500
      O    O151    49.83500    4.33000   14.46500
      N    N152    50.79700    5.45900   16.14900
      N    N153    46.60900    2.57600   14.51200
      C    C154    46.37700    1.13200   14.64000
      C    C155    47.39600    0.31300   13.87000
      O    O156    47.36900   -0.90900   13.92600
      C    C157    44.89800    0.81600   14.16000
      O    O158    44.77500    1.25400   12.78600
      C    C159    43.94200    1.46600   14.97300
      N    N160    48.24600    0.94500   13.07400
      C    C161    49.19900    0.26700   12.22600
      C    C162    48.73200    0.00100   10.81900
      O    O163    49.37600   -0.74100   10.07300
      N    N164    47.71700    0.69000   10.39000
      C    C165    47.22000    0.56900    9.00400
      C    C166    47.82400    1.60300    8.05500
      O    O167    47.26900    1.85100    7.01000
      C    C168    45.72500    0.72900    8.97300
      C    C169    45.24100    2.08300    9.51700
      O    O170    46.02700    2.93800    9.96100
      N    N171    43.96200    2.30600    9.48800
      N    N172    48.85200    2.32800    8.50500
      C    C173    49.48400    3.31400    7.63600
      C    C174    48.81100    4.66400    7.62100
      O    O175    49.29700    5.56100    6.92400
      N    N176    47.76200    4.84000    8.46500
      C    C177    47.04200    6.05900    8.62300
      C    C178    46.89900    6.46700   10.11700
      O    O179    47.11300    5.65800   11.04800
      C    C180    45.63800    6.03000    8.01200
      C    C181    45.61700    5.50500    6.57000
      C    C182    44.17800    5.34800    6.13500
      C    C183    43.94900    4.28800    5.11200
      N    N184    42.89300    3.27400    5.57700
      N    N185    46.71900    7.74100   10.31000
      C    C186    46.89900    8.37100   11.65100
      C    C187    45.94400    9.42100   12.01000
      O    O188    45.62300   10.28300   11.20300
      C    C189    48.43000    8.91100   11.79100
      C    C190    49.47500    7.90200   11.52200
      C    C191    49.99000    7.68700   10.21200
      C    C192    50.07500    7.18700   12.55100
      C    C193    50.89300    6.72900    9.95500
      C    C194    51.02700    6.21400   12.28400
      C    C195    51.45000    6.02300   10.98200
      O    O196    52.35100    5.08500   10.63600
      N    N197    45.42500    9.36500   13.24700
      C    C198    44.58000   10.36000   13.81700
      C    C199    43.13000   10.16800   13.42900
      O    O200    42.78200    9.15600   12.75500
      N    N201    42.33100   11.13500   13.78000
      C    C202    40.85800   10.99800   13.68500
      C    C203    40.46000   10.97700   12.24300
      O    O204    39.41400   10.43200   11.89800
      N    N205    41.22700   11.68800   11.41600
      C    C206    40.93000   11.83200    9.98100
      C    C207    41.76000   10.88000    9.09100
      O    O208    41.65900   10.91700    7.86600
      C    C209    40.99300   13.29000    9.51300
      C    C210    40.06900   14.26500   10.28900
      C    C211    40.47700   15.69600    9.97200
      C    C212    38.58700   14.03800    9.95100
      N    N213    42.57000    9.99000    9.73100
      C    C214    43.31100    8.97400    9.01600
      C    C215    44.20500    9.44900    7.95500
      O    O216    44.14900    8.96700    6.83600
      C    C217    42.30900    7.84900    8.59300
      C    C218    41.69800    7.12200    9.76700
      C    C219    42.57000    6.16500   10.50100
      O    O220    43.23700    6.54600   11.53000
      N    N221    42.81400    5.07600    9.92700
      N    N222    45.02100   10.44700    8.29800
      C    C223    45.98000   11.01800    7.35500
      C    C224    47.07700   10.02600    7.04000
      O    O225    47.56200    9.30200    7.98000
      C    C226    46.64900   12.23700    7.99900
      C    C227    45.95100   13.54800    7.73100
      C    C228    46.14500   14.18100    6.52600
      C    C229    45.20400   14.15000    8.68700
      C    C230    45.54100   15.43400    6.29900
      C    C231    44.54400   15.34500    8.46700
      C    C232    44.70400   15.98100    7.28300
      N    N233    47.50400    9.96000    5.77000
      C    C234    48.79500    9.34700    5.40700
      C    C235    49.97700   10.30100    5.71500
      O    O236    49.81700   11.50300    5.67400
      C    C237    48.82500    8.98900    3.91100
      C    C238    48.04800    7.69800    3.69800
      C    C239    47.78900    7.37600    2.24200
      C    C240    46.85700    6.17000    2.13500
      N    N241    46.26600    6.00700    0.78600
      N    N242    51.15500    9.76800    6.07100
      C    C243    52.20700   10.71600    6.51200
      C    C244    52.61500   11.74200    5.42400
      O    O245    52.89500   12.86900    5.77100
      C    C246    53.37700    9.79000    6.85500
      C    C247    52.69900    8.52300    7.34000
      C    C248    51.46000    8.39400    6.47900
      N    N249    52.64900   11.32000    4.15100
      C    C250    53.15000   12.18500    3.08200
      C    C251    52.17000   13.34900    2.87300
      O    O252    52.59900   14.47700    2.68800
      C    C253    53.39500   11.40600    1.80800
      N    N254    50.85800   13.11000    3.01500
      C    C255    49.88200   14.20000    2.92700
      C    C256    49.97800   15.15600    4.13400
      O    O257    49.93000   16.37900    3.97000
      C    C258    48.42400   13.63700    2.91200
      O    O259    48.30800   12.63300    1.89700
      C    C260    47.33500   14.73200    2.61600
      N    N261    50.11400   14.60100    5.32500
      C    C262    50.21400   15.40600    6.58000
      C    C263    51.42000   16.34500    6.44900
      O    O264    51.23500   17.54700    6.51000
      C    C265    50.43200   14.51800    7.77000
      C    C266    50.62200   15.15300    9.04100
      C    C267    51.74000   15.18700    9.74500
      C    C268    49.58400   15.68900    9.89800
      N    N269    51.53800   15.77100   10.95200
      C    C270    50.19800   16.07300   11.07900
      C    C271    48.21000   15.89500    9.73800
      C    C272    49.53900   16.71100   12.07900
      C    C273    47.50200   16.44900   10.77400
      C    C274    48.17300   16.91800   11.91600
      N    N275    52.58800   15.79000    6.11400
      C    C276    53.82400   16.60200    5.96800
      C    C277    53.66400   17.65100    4.86400
      O    O278    54.10900   18.78900    4.99600
      C    C279    55.03000   15.71300    5.70500
      N    N280    53.07900   17.26000    3.74400
      C    C281    52.91100   18.13100    2.59600
      C    C282    52.08600   19.36000    2.92900
      O    O283    52.36200   20.43700    2.36200
      C    C284    52.31300   17.39200    1.38400
      N    N285    51.11200   19.22900    3.81300
      C    C286    50.23400   20.34100    4.17600
      C    C287    50.57500   21.02900    5.49800
      O    O288    49.75000   21.74800    6.02500
      C    C289    48.79500   19.91700    4.06300
      C    C290    48.33100   19.74700    2.66300
      C    C291    48.50700   18.55400    2.01100
      C    C292    47.74000   20.82100    1.94500
      C    C293    48.14100   18.40100    0.67900
      C    C294    47.33400   20.67800    0.63900
      C    C295    47.58400   19.48300   -0.03700
      N    N296    51.81100   20.83900    6.01200
      C    C297    52.28800   21.59000    7.17900
      C    C298    52.16600   20.92600    8.51900
      O    O299    52.44800   21.52300    9.55700
      N    N300    51.76500   19.66700    8.51500
      C    C301    51.77600   18.93400    9.73800
      C    C302    53.19100   18.49900   10.10100
      O    O303    53.94900   18.07600    9.24700
      N    N304    53.45400   18.46600   11.38200
      C    C305    54.68400   17.88400   11.86600
      C    C306    54.36500   16.73000   12.84300
      O    O307    53.33200   16.74400   13.48100
      C    C308    55.57200   18.96300   12.51400
      C    C309    54.93800   19.52200   13.78400
      C    C310    56.96100   18.40000   12.80800
      N    N311    55.29400   15.76700   12.91100
      C    C312    55.22100   14.65700   13.79300
      C    C313    54.07400   13.71700   13.37700
      O    O314    53.55100   13.74500   12.25300
      N    N315    53.66500   12.91700   14.32300
      C    C316    52.60300   11.93400   14.13200
      C    C317    51.21800   12.63100   14.25000
      O    O318    50.96100   13.27600   15.23300
      C    C319    52.78500   10.88200   15.22600
      C    C320    51.82700    9.70500   15.08100
      O    O321    50.73900    9.84200   14.53700
      N    N322    52.27300    8.54500   15.45800
      N    N323    50.33000   12.49000   13.23900
      C    C324    49.06200   13.10200   13.30300
      C    C325    48.26600   12.69400   14.55100
      O    O326    47.44100   13.48200   15.06600
      C    C327    48.42700   12.72400   11.98500
      C    C328    49.51200   12.36100   11.07400
      C    C329    50.64100   11.89100   11.89600
      N    N330    48.51600   11.49800   15.03900
      C    C331    47.79300   10.94200   16.20100
      C    C332    48.20200   11.56100   17.49900
      O    O333    47.47500   11.42600   18.47800
      C    C334    47.97300    9.42500   16.29900
      N    N335    49.34500   12.22900   17.54900
      C    C336    49.76800   13.03500   18.66500
      C    C337    49.34600   14.50600   18.59900
      O    O338    49.51300   15.27200   19.57600
      C    C339    51.32800   12.93300   18.82300
      N    N340    48.81200   14.94300   17.44800
      C    C341    48.42300   16.33700   17.26900
      C    C342    47.01800   16.48800   17.86500
      O    O343    46.30100   15.46400   17.98400
      C    C344    48.42000   16.67300   15.81300
      N    N345    46.68700   17.66500   18.37300
      C    C346    45.33600   17.92200   18.90200
      C    C347    44.32500   17.73700   17.76300
      O    O348    44.66300   17.86300   16.60600
      C    C349    45.22900   19.28200   19.54600
      O    O350    45.35500   20.34300   18.61300
      N    N351    43.07400   17.45500   18.12000
      C    C352    41.96900   17.52900   17.15900
      C    C353    42.03100   18.81600   16.37700
      O    O354    41.88000   18.81700   15.17900
      C    C355    40.60300   17.46600   17.92000
      C    C356    39.40800   17.84700   17.09100
      C    C357    38.13000   17.73500   17.92400
      N    N358    36.96800   18.28200   17.19500
      C    C359    36.69000   19.56100   17.01500
      N    N360    37.42300   20.55000   17.51200
      N    N361    35.67700   19.90600   16.29900
      N    N362    42.20500   19.93500   17.07700
      C    C363    42.25400   21.27600   16.42200
      C    C364    43.40000   21.35400   15.37200
      O    O365    43.16200   21.87900   14.31300
      C    C366    42.25100   22.41900   17.42700
      C    C367    40.96800   22.50400   18.28300
      C    C368    40.77200   21.26800   19.23400
      O    O369    41.77000   20.61900   19.76600
      O    O370    39.57000   20.88900   19.45500
      N    N371    44.57300   20.80300   15.67100
      C    C372    45.70400   20.81100   14.70900
      C    C373    45.43000   19.91300   13.55300
      O    O374    45.78900   20.24800   12.38200
      C    C375    46.99400   20.42600   15.41200
      C    C376    47.40600   21.49100   16.44100
      C    C377    48.45000   21.01800   17.41200
      O    O378    48.52000   19.84100   17.77400
      N    N379    49.28300   21.92700   17.83700
      N    N380    44.82800   18.79500   13.82500
      C    C381    44.45700   17.86800   12.77400
      C    C382    43.46400   18.55200   11.79600
      O    O383    43.52800   18.31700   10.57900
      C    C384    43.88300   16.57700   13.33900
      C    C385    44.92100   15.74300   14.10400
      C    C386    44.35500   14.45200   14.65600
      O    O387    43.75000   13.64900   13.94100
      N    N388    44.55400   14.26500   15.92800
      N    N389    42.43100   19.20300   12.36200
      C    C390    41.43400   19.94800   11.59000
      C    C391    42.08600   21.05500   10.78700
      O    O392    41.71500   21.25300    9.61300
      C    C393    40.30200   20.40800   12.46800
      C    C394    39.46300   19.18100   12.86800
      C    C395    39.49900   21.50700   11.80200
      C    C396    38.44500   19.47800   13.91900
      N    N397    43.01200   21.80300   11.36300
      C    C398    43.72000   22.83000   10.66500
      C    C399    44.35100   22.24700    9.41400
      O    O400    44.30000   22.90500    8.34800
      C    C401    44.75900   23.49400   11.53100
      N    N402    45.04600   21.12500    9.53400
      C    C403    45.71800   20.50200    8.37300
      C    C404    44.69300   19.96700    7.34900
      O    O405    44.79700   20.24400    6.16200
      C    C406    46.73400   19.38500    8.74600
      C    C407    47.35600   18.79600    7.49000
      C    C408    47.80500   19.95900    9.61400
      N    N409    43.61000   19.39300    7.83500
      C    C410    42.48600   19.01100    6.91400
      C    C411    41.86200   20.14900    6.12400
      O    O412    41.60600   19.97900    4.95000
      C    C413    41.39400   18.29300    7.68100
      N    N414    41.67900   21.29200    6.74700
      C    C415    41.13900   22.46700    6.07800
      C    C416    42.05300   22.85800    4.89700
      O    O417    41.56700   23.20000    3.80800
      C    C418    40.85100   23.61600    7.03800
      C    C419    39.55600   23.41300    7.78000
      O    O420    38.57600   22.91400    7.21400
      N    N421    39.50600   23.85300    9.04700
      N    N422    43.37400   22.82400    5.08700
      C    C423    44.30400   23.05000    3.98500
      C    C424    44.20200   22.01900    2.83000
      O    O425    44.22300   22.41100    1.63200
      C    C426    45.71600   23.06900    4.51500
      C    C427    45.93800   24.17400    5.51500
      C    C428    47.26600   23.93500    6.17200
      N    N429    47.59600   25.01700    7.04000
      C    C430    48.76300   25.18600    7.60700
      N    N431    49.70800   24.26200    7.45900
      N    N432    48.94100   26.21200    8.40800
      N    N433    44.09300   20.74300    3.18100
      C    C434    43.92400   19.66200    2.21000
      C    C435    42.67100   19.86800    1.41800
      O    O436    42.63600   19.69700    0.17600
      C    C437    43.89500   18.24600    2.89500
      C    C438    43.52300   17.16800    1.90600
      C    C439    45.27600   17.93000    3.49200
      N    N440    41.62700   20.25000    2.07600
      C    C441    40.32700   20.53900    1.42900
      C    C442    40.42600   21.61400    0.38900
      O    O443    39.88000   21.47500   -0.72400
      C    C444    39.26000   20.91800    2.45300
      C    C445    37.86600   21.25300    1.94100
      C    C446    37.21200   20.09000    1.24500
      C    C447    36.99800   21.76600    3.07200
      N    N448    41.04900   22.74600    0.75500
      C    C449    41.22900   23.85300   -0.15400
      C    C450    41.97200   23.42700   -1.38700
      O    O451    41.62000   23.80700   -2.47800
      C    C452    41.95000   25.01900    0.57200
      N    N453    43.03700   22.64100   -1.24600
      C    C454    43.90500   22.25900   -2.42400
      C    C455    43.41300   21.04700   -3.26800
      O    O456    43.52300   21.07800   -4.48800
      C    C457    45.28700   21.92200   -1.92600
      C    C458    46.27800   21.50100   -3.00900
      C    C459    46.71600   22.66400   -3.84900
      O    O460    46.58200   23.82900   -3.37000
      O    O461    47.18600   22.43200   -4.99700
      N    N462    42.81100   20.03000   -2.61600
      C    C463    42.42000   18.77800   -3.21600
      C    C464    40.88900   18.50300   -3.25700
      O    O465    40.42900   17.57300   -3.90900
      C    C466    43.07100   17.62800   -2.39200
      C    C467    44.59300   17.64400   -2.43700
      C    C468    45.22300   16.41300   -1.81000
      O    O469    44.55000   15.55000   -1.26000
      N    N470    46.53300   16.32100   -1.92300
      N    N471    40.09000   19.23600   -2.47300
      C    C472    38.65500   18.97600   -2.31500
      C    C473    38.37400   17.75700   -1.41200
      O    O474    39.29400   17.15700   -0.82000
      N    N475    37.08800   17.38300   -1.30400
      C    C476    36.68300   16.25400   -0.49600
      C    C477    37.09200   14.92900   -1.16300
      O    O478    37.02600   13.91100   -0.51800
      C    C479    35.16600   16.25100   -0.33200
      C    C480    34.57900   17.33600    0.53900
      C    C481    33.05200   17.22300    0.48800
      C    C482    35.05800   17.19700    1.94800
      N    N483    37.60600   14.96200   -2.39400
      C    C484    38.30700   13.81300   -3.00500
      C    C485    39.44400   13.24500   -2.14200
      O    O486    39.83100   12.07500   -2.32000
      C    C487    38.85500   14.11700   -4.41100
      C    C488    37.79100   13.99200   -5.49400
      O    O489    36.65700   13.55500   -5.20200
      O    O490    38.08500   14.31300   -6.65700
      N    N491    39.96700   14.02100   -1.19900
      C    C492    40.96300   13.48600   -0.33000
      C    C493    40.40900   12.46500    0.70000
      O    O494    41.15700   11.67000    1.23900
      C    C495    41.68400   14.58100    0.36300
      N    N496    39.08400   12.46700    0.90300
      C    C497    38.35500   11.49800    1.71200
      C    C498    37.24400   10.90500    0.83200
      O    O499    36.06200   11.29000    0.90900
      C    C500    37.77600   12.21600    2.94600
      C    C501    38.82900   12.68000    3.89400
      C    C502    39.34800   11.97900    4.93500
      C    C503    39.46000   13.92900    3.92900
      N    N504    40.31400   12.70300    5.58800
      C    C505    40.39500   13.90300    4.98700
      C    C506    39.36800   15.05500    3.16500
      C    C507    41.21000   14.97800    5.29900
      C    C508    40.22800   16.14000    3.48500
      C    C509    41.10200   16.07000    4.53600
      N    N510    37.60400    9.97700   -0.05000
      C    C511    36.64000    9.60200   -1.09100
      C    C512    35.30700    8.95900   -0.64500
      O    O513    34.29300    9.18900   -1.30300
      C    C514    37.44200    8.68200   -2.03900
      C    C515    38.73800    8.38600   -1.34800
      C    C516    38.89000    9.25200   -0.14300
      N    N517    35.27000    8.26900    0.48500
      C    C518    33.97300    7.75300    1.03700
      C    C519    33.41600    8.58100    2.18300
      O    O520    32.17600    8.86000    2.26500
      C    C521    34.11300    6.28000    1.45800
      O    O522    34.53900    5.56500    0.31300
      C    C523    32.75900    5.66500    1.94800
      N    N524    34.30900    9.04300    3.02600
      C    C525    33.94600    9.75500    4.21800
      C    C526    33.62400   11.26100    4.00100
      O    O527    33.06000   11.89200    4.86700
      C    C528    35.02200    9.51700    5.26500
      S    S529    35.04600    7.77400    5.88000
      N    N530    34.06800   11.82200    2.89000
      C    C531    33.95400   13.23900    2.65900
      C    C532    32.54900   13.76600    2.76000
      O    O533    32.35100   14.83300    3.33800
      N    N534    31.59600   12.99000    2.27600
      C    C535    30.16000   13.39100    2.34200
      C    C536    29.71300   13.70500    3.75300
      O    O537    28.76300   14.46600    3.93800
      C    C538    29.30400   12.26300    1.75900
      N    N539    30.30500   13.04400    4.76300
      C    C540    29.89600   13.23400    6.14900
      C    C541    30.19700   14.66200    6.63000
      O    O542    29.57800   15.13500    7.53700
      C    C543    30.54300   12.19500    7.07000
      N    N544    31.08200   15.38600    5.92200
      C    C545    31.36500   16.79300    6.18200
      C    C546    30.10800   17.66000    6.12200
      O    O547    30.08600   18.77700    6.63600
      C    C548    32.34100   17.33100    5.14200
      O    O549    31.72900   17.45800    3.85600
      N    N550    29.08400   17.18400    5.43500
      C    C551    27.90800   17.98700    5.22100
      C    C552    28.05500   18.98700    4.07700
      O    O553    27.08400   19.72600    3.80300
      N    N554    29.20700   19.05400    3.39000
      C    C555    29.33300   19.89100    2.22900
      C    C556    28.84200   19.10300    1.00800
      O    O557    29.23800   17.94100    0.86500
      C    C558    30.79800   20.28200    2.03800
      C    C559    31.44500   21.06100    3.17500
      C    C560    32.89000   21.24600    2.84600
      C    C561    30.77100   22.41900    3.38500
      N    N562    28.04200   19.71500    0.12600
      C    C563    27.56200   18.91600   -1.03200
      C    C564    28.70400   18.38300   -1.89900
      O    O565    29.51800   19.15600   -2.43600
      C    C566    26.65400   19.89100   -1.79800
      C    C567    26.93900   21.25500   -1.22200
      C    C568    27.38100   21.04200    0.19100
      N    N569    28.80400   17.06100   -2.02700
      C    C570    29.97000   16.54000   -2.76500
      C    C571    29.99500   16.98400   -4.19100
      O    O572    31.05700   16.99700   -4.76400
      C    C573    30.11400   15.00100   -2.88500
      C    C574    28.98900   14.44800   -3.77900
      C    C575    30.22600   14.38700   -1.53600
      C    C576    29.44300   14.12600   -5.19000
      N    N577    28.83500   17.19400   -4.80700
      C    C578    28.83000   17.53600   -6.20100
      C    C579    29.53400   18.88000   -6.41800
      O    O580    30.00600   19.13200   -7.52000
      C    C581    27.40800   17.55800   -6.77500
      N    N582    29.63200   19.70600   -5.36100
      C    C583    30.16000   21.08500   -5.48000
      C    C584    31.56000   21.20900   -4.87800
      O    O585    32.27200   22.13400   -5.20000
      C    C586    29.22400   22.07100   -4.79700
      C    C587    27.75500   22.00400   -5.24900
      C    C588    26.90000   23.02800   -4.50600
      C    C589    27.63000   22.18600   -6.74700
      N    N590    31.94200   20.26700   -4.03900
      C    C591    33.20200   20.36700   -3.24200
      C    C592    34.19400   19.19600   -3.41400
      O    O593    35.20000   19.10200   -2.67300
      C    C594    32.88700   20.45500   -1.78900
      C    C595    32.32500   21.76600   -1.21700
      C    C596    31.03100   22.12900   -1.10200
      C    C597    33.08200   22.89300   -0.74000
      N    N598    30.90600   23.38600   -0.54500
      C    C599    32.15700   23.87200   -0.30000
      C    C600    34.45500   23.12800   -0.57600
      C    C601    32.54900   25.06400    0.29900
      C    C602    34.85800   24.37500   -0.02500
      C    C603    33.92100   25.32800    0.35500
      N    N604    33.89100   18.31700   -4.37900
      C    C605    34.77000   17.20900   -4.70400
      C    C606    36.07700   17.62100   -5.34000
      O    O607    37.08200   17.04400   -4.81800
      C    C608    34.08000   16.20600   -5.62100
      O    O609    33.15500   15.56900   -4.78700
      N    N610    36.02800   18.71500   -6.14000
      C    C611    36.82400   19.18900   -7.36000
      C    C612    37.39800   18.14900   -8.33200
      O    O613    37.50700   16.96700   -7.98200
      C    C614    37.91000   20.26500   -7.01800
      C    C615    37.54700   21.22400   -5.84200
      C    C616    38.41700   22.50700   -5.78000
      C    C617    37.85500   23.63500   -6.63600
      N    N618    37.67800   23.19800   -8.02300
