# CIF file generated by openbabel 2.3.2, see http://openbabel.sf.net
data_I
_chemical_name_common '../proteins/pdb/4W4L.pdb'
_cell_length_a 138.64
_cell_length_b 138.64
_cell_length_c 169.68
_cell_angle_alpha 90
_cell_angle_beta 90
_cell_angle_gamma 120
_space_group_name_H-M_alt 'P 61 2 2'
_space_group_name_Hall 'P 61 2 (0 0 -1)'
loop_
    _symmetry_equiv_pos_as_xyz
    'x,y,z'
    '-y,x-y,1/3+z'
    '-x+y,-x,2/3+z'
    '-x,-y,1/2+z'
    'y,-x+y,5/6+z'
    'x-y,x,1/6+z'
    'y,x,1/3-z'
    'x-y,-y,-z'
    '-x,-x+y,2/3-z'
    '-y,-x,5/6-z'
    '-x+y,y,1/2-z'
    'x,x-y,1/6-z'
loop_
    _atom_site_type_symbol
    _atom_site_label
    _atom_site_Cartn_x
    _atom_site_Cartn_y
    _atom_site_Cartn_z
      N    N1    24.31200  112.25100  -17.94700
      C    C2    22.97600  112.40400  -18.51000
      C    C3    21.90800  112.41200  -17.42300
      O    O4    21.34600  111.37000  -17.09500
      C    C5    22.69100  111.28700  -19.51500
      C    C6    21.49200  111.58500  -20.39700
      O    O7    20.68600  112.46700  -20.09700
      N    N8    21.36900  110.84600  -21.49300
      N    N9    21.62400  113.59700  -16.86300
      C    C10    20.66000  113.77600  -15.76800
      C    C11    19.21500  113.45400  -16.16000
      O    O12    18.46300  112.85900  -15.37100
      C    C13    20.80500  115.26100  -15.41800
      C    C14    21.30700  115.89500  -16.67000
      C    C15    22.20600  114.87700  -17.30200
      N    N16    18.83700  113.84600  -17.37300
      C    C17    17.47200  113.67300  -17.85300
      C    C18    17.08900  112.19700  -17.88800
      O    O19    15.92300  111.84000  -17.70800
      C    C20    17.31300  114.30100  -19.23900
      C    C21    15.87200  114.49700  -19.67400
      C    C22    15.76200  115.15500  -21.03700
      O    O23    16.77500  115.18100  -21.77100
      O    O24    14.66600  115.64900  -21.37400
      N    N25    18.08300  111.34400  -18.11400
      C    C26    17.87900  109.90100  -18.09700
      C    C27    17.50900  109.42500  -16.69400
      O    O28    16.60800  108.60100  -16.52400
      C    C29    19.12300  109.18400  -18.59300
      N    N30    18.20700  109.94700  -15.69100
      C    C31    17.90600  109.61200  -14.30600
      C    C32    16.51900  110.12000  -13.92900
      O    O33    15.78600  109.45100  -13.19900
      C    C34    18.95900  110.19400  -13.36200
      C    C35    20.39900  109.71400  -13.55800
      C    C36    21.31900  110.37000  -12.54000
      C    C37    20.48300  108.19900  -13.46500
      N    N38    16.16400  111.30200  -14.42600
      C    C39    14.82100  111.84000  -14.20400
      C    C40    13.74900  110.90300  -14.76900
      O    O41    12.81400  110.49600  -14.06000
      C    C42    14.66500  113.23500  -14.83600
      O    O43    15.42300  114.18400  -14.07800
      C    C44    13.20700  113.66200  -14.84600
      N    N45    13.90400  110.56000  -16.04500
      C    C46    13.00400  109.63200  -16.72100
      C    C47    12.86200  108.32200  -15.94700
      O    O48    11.74700  107.85100  -15.69000
      C    C49    13.49400  109.32200  -18.14900
      C    C50    12.74500  108.13600  -18.72800
      C    C51    13.33600  110.54100  -19.03800
      N    N52    14.00200  107.75000  -15.57000
      C    C53    14.03100  106.48600  -14.84700
      C    C54    13.31000  106.59800  -13.50600
      O    O55    12.61500  105.67300  -13.09300
      C    C56    15.46600  106.02600  -14.64400
      N    N57    13.47400  107.73400  -12.83600
      C    C58    12.78600  107.97700  -11.57400
      C    C59    11.27600  107.98700  -11.78900
      O    O60    10.51800  107.35800  -11.03200
      C    C61    13.24500  109.28600  -10.95900
      N    N62    10.84700  108.69700  -12.82900
      C    C63     9.43100  108.73600  -13.17800
      C    C64     8.87600  107.32500  -13.41500
      O    O65     7.83500  106.94800  -12.86000
      C    C66     9.18900  109.59700  -14.42900
      O    O67     9.61800  110.94000  -14.17400
      C    C68     7.71500  109.60800  -14.79100
      N    N69     9.58900  106.54500  -14.22300
      C    C70     9.16400  105.18300  -14.53500
      C    C71     9.09700  104.30600  -13.28300
      O    O72     8.17300  103.50200  -13.12500
      C    C73    10.10000  104.55800  -15.57100
      C    C74    10.02200  105.21600  -16.94400
      C    C75    11.06700  104.69100  -17.91700
      O    O76    11.91300  103.87100  -17.50300
      O    O77    11.04200  105.10100  -19.09800
      N    N78    10.07800  104.46700  -12.40000
      C    C79    10.12000  103.71000  -11.15700
      C    C80     8.89900  104.03500  -10.30700
      O    O81     8.24300  103.13100   -9.78200
      C    C82    11.41000  103.99400  -10.35500
      C    C83    11.22900  103.62700   -8.89300
      C    C84    12.58600  103.23400  -10.95300
      N    N85     8.57900  105.32100  -10.19500
      C    C86     7.39700  105.71600   -9.43600
      C    C87     6.11500  105.16000  -10.06100
      O    O88     5.23500  104.68500   -9.33900
      C    C89     7.32700  107.23900   -9.30100
      C    C90     8.44600  107.78600   -8.42500
      C    C91     8.10800  109.13200   -7.80300
      N    N92     9.07000  109.50200   -6.76400
      C    C93    10.15000  110.25100   -6.96800
      N    N94    10.41600  110.72200   -8.17900
      N    N95    10.96600  110.53000   -5.96000
      N    N96     6.01300  105.19400  -11.39000
      C    C97     4.87600  104.56600  -12.06800
      C    C98     4.74100  103.09500  -11.67900
      O    O99     3.66100  102.63800  -11.29400
      C    C100     5.00800  104.67600  -13.58500
      C    C101     4.53800  105.98700  -14.16200
      C    C102     4.28100  105.85700  -15.65200
      N    N103     3.93900  107.14300  -16.24900
      C    C104     4.82200  107.95100  -16.82400
      N    N105     6.09900  107.59900  -16.88600
      N    N106     4.42900  109.10800  -17.34300
      N    N107     5.84800  102.36600  -11.78700
      C    C108     5.90100  100.95800  -11.40700
      C    C109     5.40900  100.74400   -9.97100
      O    O110     4.58800   99.85100   -9.70800
      C    C111     7.33100  100.41300  -11.57300
      C    C112     7.67200  100.31400  -13.06500
      C    C113     7.47100   99.06100  -10.90800
      C    C114     9.14000  100.09300  -13.36300
      N    N115     5.91000  101.57000   -9.05500
      N    N116     5.90300  101.57400   -9.05600
      C    C117     5.47200  101.56200   -7.66100
      C    C118     5.47000  101.54800   -7.66200
      C    C119     3.95800  101.70700   -7.55000
      C    C120     3.95700  101.71200   -7.54200
      O    O121     3.29700  100.93500   -6.84900
      O    O122     3.29300  100.95200   -6.83100
      C    C123     6.15800  102.68600   -6.87900
      C    C124     6.18000  102.64400   -6.86600
      C    C125     5.39700  103.13500   -5.63800
      C    C126     5.71900  102.76900   -5.42200
      C    C127     5.90700  104.47600   -5.12800
      C    C128     6.46500  103.88300   -4.70400
      N    N129     4.88100  105.20000   -4.38300
      N    N130     5.94900  104.10100   -3.35600
      C    C131     4.69200  105.09500   -3.07100
      C    C132     4.94700  104.92600   -3.06500
      N    N133     5.46200  104.29400   -2.34700
      N    N134     4.35000  105.61500   -4.02900
      N    N135     3.73000  105.79200   -2.48100
      N    N136     4.54200  105.05900   -1.80800
      N    N137     3.41900  102.69900   -8.25200
      C    C138     1.98600  102.95700   -8.24500
      C    C139     1.21100  101.74500   -8.74100
      O    O140     0.16000  101.41100   -8.19800
      C    C141     1.65200  104.17900   -9.09900
      C    C142     2.32000  105.44200   -8.59200
      O    O143     2.59500  105.52800   -7.37300
      O    O144     2.57200  106.35000   -9.41200
      N    N145     1.74200  101.07400   -9.75800
      C    C146     1.08900   99.87800  -10.27500
      C    C147     1.07100   98.75700   -9.23500
      O    O148     0.03600   98.10800   -9.02000
      C    C149     1.77400   99.39600  -11.55400
      C    C150     1.07200   98.20600  -12.18000
      C    C151     1.56300   97.93000  -13.58700
      N    N152     0.73900   96.92300  -14.24400
      C    C153     0.92200   96.50800  -15.49100
      N    N154     1.91200   97.01300  -16.21800
      N    N155     0.12000   95.58600  -16.00900
      N    N156     2.21000   98.53200   -8.58500
      C    C157     2.28500   97.49700   -7.55400
      C    C158     1.29100   97.77300   -6.42000
      O    O159     0.51600   96.88500   -6.01500
      C    C160     3.69400   97.39400   -7.01200
      N    N161     1.30300   99.01200   -5.93100
      C    C162     0.39400   99.42600   -4.86300
      C    C163    -1.07100   99.25300   -5.26700
      O    O164    -1.88300   98.71700   -4.50600
      C    C165     0.64500  100.89300   -4.45900
      C    C166     1.99100  101.01800   -3.74100
      C    C167    -0.47900  101.41600   -3.57400
      C    C168     2.38300  102.44400   -3.42900
      N    N169    -1.39800   99.68800   -6.47800
      C    C170    -2.76900   99.62400   -6.96600
      C    C171    -3.25400   98.18400   -7.09200
      O    O172    -4.40400   97.87400   -6.74200
      C    C173    -2.89500  100.33400   -8.31300
      C    C174    -4.28700  100.26000   -8.90900
      C    C175    -4.32400  100.69300  -10.36300
      O    O176    -5.35900  100.59700  -11.02400
      N    N177    -3.19100  101.17300  -10.87100
      N    N178    -2.38200   97.30300   -7.58200
      C    C179    -2.77300   95.90700   -7.75800
      C    C180    -2.93900   95.21800   -6.40500
      O    O181    -3.87600   94.44100   -6.21700
      C    C182    -1.76000   95.15400   -8.62400
      O    O183    -0.58200   94.84600   -7.90300
      N    N184    -2.03400   95.50000   -5.46700
      C    C185    -2.19800   95.01800   -4.09400
      C    C186    -3.56300   95.43700   -3.53200
      O    O187    -4.36300   94.60200   -3.05200
      C    C188    -1.06300   95.54800   -3.21000
      C    C189    -1.33100   95.36800   -1.72100
      O    O190    -1.36200   94.20900   -1.25500
      O    O191    -1.48700   96.39000   -1.01200
      N    N192    -3.83600   96.73500   -3.62800
      C    C193    -5.04000   97.30400   -3.03700
      C    C194    -6.32100   96.74900   -3.64900
      O    O195    -7.24200   96.39300   -2.91800
      C    C196    -5.02500   98.82200   -3.15700
      N    N197    -6.40000   96.66200   -4.97400
      C    C198    -7.70600   96.36300   -5.55800
      C    C199    -8.13500   94.90400   -5.37200
      O    O200    -9.33000   94.62500   -5.32100
      C    C201    -7.75500   96.75800   -7.04100
      C    C202    -6.78900   96.05700   -7.96500
      C    C203    -6.73800   96.72700   -9.33400
      O    O204    -7.24500   97.83800   -9.51000
      N    N205    -6.12500   96.05600  -10.30500
      N    N206    -7.18900   93.97300   -5.28200
      C    C207    -7.55800   92.59100   -4.98000
      C    C208    -7.41000   92.20000   -3.50200
      O    O209    -7.75700   91.07500   -3.12900
      C    C210    -6.74300   91.59100   -5.81600
      C    C211    -6.85500   91.92200   -7.29700
      C    C212    -5.30500   91.59100   -5.36400
      N    N213    -6.90200   93.10700   -2.66600
      C    C214    -6.85400   92.83900   -1.22300
      C    C215    -8.19400   92.36500   -0.61200
      O    O216    -8.19600   91.44700    0.20900
      C    C217    -6.35600   94.06800   -0.47600
      N    N218    -9.33500   92.97700   -0.99900
      C    C219   -10.58700   92.48100   -0.40800
      C    C220   -10.89500   91.01600   -0.70400
      O    O221   -11.57200   90.37400    0.09100
      C    C222   -11.65200   93.37700   -1.04600
      C    C223   -10.93200   94.63300   -1.35400
      C    C224    -9.56600   94.19800   -1.79300
      N    N225   -10.43000   90.50300   -1.83700
      C    C226   -10.70000   89.11500   -2.19800
      C    C227    -9.77300   88.12200   -1.50000
      O    O228   -10.21100   87.05800   -1.07300
      C    C229   -10.60400   88.92600   -3.71400
      C    C230   -11.32800   89.98800   -4.52700
      S    S231   -13.04400   90.19900   -4.03900
      C    C232   -13.64400   88.51800   -4.17100
      N    N233    -8.49200   88.46200   -1.39700
      C    C234    -7.50900   87.52600   -0.86500
      C    C235    -7.65000   87.35200    0.64100
      O    O236    -7.36900   86.28300    1.17700
      C    C237    -6.07400   87.97600   -1.17800
      O    O238    -5.89700   89.33600   -0.76300
      C    C239    -5.80000   87.87500   -2.66700
      N    N240    -8.09300   88.40300    1.31800
      C    C241    -8.20100   88.37600    2.76800
      C    C242    -9.60000   87.98000    3.25700
      O    O243    -9.83900   87.91200    4.45900
      C    C244    -7.82400   89.74400    3.36900
      O    O245    -8.85200   90.69900    3.08000
      C    C246    -6.50400   90.23000    2.79100
      N    N247   -10.51900   87.72600    2.32800
      C    C248   -11.90400   87.39500    2.68500
      C    C249   -12.18200   85.89400    2.74000
      O    O250   -13.32600   85.48100    2.92800
      C    C251   -12.86500   88.05300    1.71500
      N    N252   -11.14700   85.08600    2.54300
      C    C253   -11.30200   83.63600    2.46700
      C    C254   -11.96900   83.05500    3.70100
      O    O255   -11.56900   83.34100    4.82300
      C    C256    -9.94300   82.94100    2.27200
      C    C257   -10.13100   81.44100    2.11500
      C    C258    -9.22300   83.52700    1.06300
      N    N259   -12.98600   82.23000    3.48500
      C    C260   -13.67300   81.56200    4.57900
      C    C261   -13.42100   80.07300    4.48200
      O    O262   -13.18600   79.55500    3.39600
      C    C263   -15.17400   81.83500    4.53900
      C    C264   -15.55600   83.29100    4.63500
      C    C265   -17.05800   83.44300    4.49600
      N    N266   -17.77700   82.74300    5.55300
      C    C267   -19.08800   82.52300    5.54500
      N    N268   -19.82200   82.94200    4.52100
      N    N269   -19.66300   81.87800    6.55700
      N    N270   -13.44200   79.37400    5.62200
      C    C271   -13.33000   77.91900    5.50400
      C    C272   -14.56800   77.34900    4.81500
      O    O273   -15.68700   77.70100    5.18900
      C    C274   -13.21500   77.44600    6.96400
      C    C275   -13.71200   78.57900    7.79100
      C    C276   -13.44400   79.83500    7.02200
      N    N277   -14.36700   76.48000    3.81500
      C    C278   -15.47200   75.89600    3.04400
      C    C279   -16.42900   75.08600    3.91500
      O    O280   -17.62700   75.07000    3.64200
      C    C281   -14.75600   74.99700    2.02600
      C    C282   -13.40100   74.75400    2.60700
      C    C283   -13.05500   76.00400    3.34500
      N    N284   -15.90300   74.43700    4.95100
      C    C285   -16.72000   73.68600    5.90500
      C    C286   -16.31700   74.04000    7.34200
      O    O287   -15.51000   74.94400    7.55100
      C    C288   -16.59300   72.19200    5.65500
      N    N289   -16.88500   73.34300    8.32600
      C    C290   -16.62400   73.66500    9.73300
      C    C291   -15.49400   72.83400   10.34700
      O    O292   -15.16000   73.00400   11.51500
      C    C293   -17.90300   73.49400   10.56000
      N    N294   -14.91600   71.93600    9.55900
      C    C295   -13.85100   71.05300   10.03200
      C    C296   -12.54300   71.81200   10.27100
      O    O297   -12.36200   72.92800    9.78200
      C    C298   -13.61600   69.93200    9.03000
      C    C299   -13.07800   70.44900    7.72600
      O    O300   -13.89200   70.88700    6.88900
      O    O301   -11.84100   70.46200    7.55400
      N    N302   -11.64600   71.20500   11.04000
      C    C303   -10.36000   71.81600   11.38000
      C    C304    -9.44200   72.02300   10.16900
      O    O305    -8.68300   72.98500   10.11600
      C    C306    -9.65000   70.96000   12.43600
      C    C307    -8.20700   71.30200   12.82200
      C    C308    -8.09200   72.73400   13.33600
      C    C309    -7.67800   70.31300   13.85500
      N    N310    -9.51400   71.12900    9.19100
      C    C311    -8.65300   71.23900    8.01600
      C    C312    -9.02000   72.47000    7.18200
      O    O313    -8.15000   73.28400    6.82500
      C    C314    -8.73100   69.96800    7.15500
      C    C315    -7.89100   70.11700    5.92200
      C    C316    -8.26100   68.76000    7.96400
      N    N317   -10.31300   72.61500    6.89900
      C    C318   -10.82300   73.79100    6.19200
      C    C319   -10.41300   75.07500    6.89500
      O    O320    -9.98100   76.04300    6.24600
      C    C321   -12.34700   73.73400    6.07800
      O    O322   -12.77600   72.49500    5.54500
      N    N323   -10.53400   75.07400    8.22700
      C    C324   -10.18100   76.24700    9.01700
      C    C325    -8.70200   76.55200    8.86600
      O    O326    -8.32300   77.70000    8.65300
      C    C327   -10.53900   76.05100   10.49600
      C    C328   -10.39100   77.31000   11.35000
      C    C329    -8.95100   77.59800   11.76200
      O    O330    -8.16500   76.63800   11.89400
      O    O331    -8.60300   78.78600   11.95100
      N    N332    -7.87200   75.52100    8.98500
      C    C333    -6.42800   75.68300    8.85000
      C    C334    -6.07100   76.30400    7.50000
      O    O335    -5.25900   77.23800    7.43100
      C    C336    -5.72100   74.33500    9.01700
      C    C337    -4.77800   74.25800   10.21200
      C    C338    -5.49400   74.53300   11.52700
      C    C339    -4.54300   74.40900   12.71400
      N    N340    -5.17000   74.83800   13.99300
      N    N341    -6.69300   75.80000    6.43300
      C    C342    -6.42200   76.31700    5.09100
      C    C343    -6.85000   77.77900    4.93800
      O    O344    -6.07800   78.61400    4.44500
      C    C345    -7.11400   75.45800    4.04300
      N    N346    -8.07500   78.08800    5.36100
      C    C347    -8.58000   79.45600    5.25500
      C    C348    -7.72400   80.44500    6.05300
      O    O349    -7.37700   81.52600    5.56400
      C    C350   -10.02600   79.51700    5.71300
      N    N351    -7.38400   80.06900    7.28100
      C    C352    -6.57700   80.92300    8.14800
      C    C353    -5.19800   81.14800    7.54500
      O    O354    -4.69600   82.28900    7.49600
      C    C355    -6.42900   80.31800    9.54600
      O    O356    -7.72600   80.16400   10.12900
      C    C357    -5.59400   81.22000   10.42800
      N    N358    -4.59800   80.05900    7.06700
      C    C359    -3.30200   80.15800    6.41600
      C    C360    -3.36800   81.13200    5.25400
      O    O361    -2.51000   81.99100    5.13500
      C    C362    -2.81100   78.79900    5.91700
      C    C363    -1.45200   78.85200    5.27400
      C    C364    -1.30200   79.25400    3.94900
      C    C365    -0.32100   78.51300    5.99500
      C    C366    -0.05200   79.31300    3.36400
      C    C367     0.93100   78.56600    5.41100
      C    C368     1.06600   78.96600    4.09500
      N    N369    -4.37200   80.98800    4.39200
      C    C370    -4.45500   81.83600    3.20200
      C    C371    -4.70800   83.30200    3.55800
      O    O372    -4.17600   84.20400    2.90500
      C    C373    -5.54000   81.32700    2.25200
      C    C374    -5.26600   79.94200    1.64500
      C    C375    -6.50300   79.38100    0.95400
      C    C376    -4.08500   79.97900    0.68200
      N    N377    -5.51000   83.55100    4.59000
      C    C378    -5.73900   84.93100    5.01500
      C    C379    -4.43400   85.56200    5.52400
      O    O380    -4.07400   86.69300    5.13800
      C    C381    -6.83200   85.00900    6.09300
      C    C382    -6.89400   86.39500    6.70600
      C    C383    -8.18200   84.62600    5.48900
      N    N384    -3.72400   84.82500    6.37700
      N    N385    -3.71200   84.83100    6.37000
      C    C386    -2.45100   85.29300    6.92200
      C    C387    -2.45800   85.35200    6.90900
      C    C388    -1.42900   85.51000    5.80500
      C    C389    -1.42000   85.52000    5.79700
      O    O390    -0.65400   86.46800    5.82800
      O    O391    -0.61800   86.45400    5.81800
      C    C392    -1.91600   84.29700    7.96000
      C    C393    -1.92100   84.44000    8.01500
      C    C394    -2.77800   84.19400    9.21400
      C    C395    -0.82400   85.07600    8.85800
      C    C396    -2.38500   83.03400   10.11600
      C    C397    -1.31500   86.26300    9.68100
      O    O398    -1.77400   82.06400    9.61400
      O    O399    -2.51900   86.31100   10.01400
      O    O400    -2.69100   83.09300   11.32800
      O    O401    -0.49400   87.15100    9.99700
      N    N402    -1.45100   84.61600    4.82400
      C    C403    -0.55900   84.68200    3.66700
      C    C404    -0.82600   85.94200    2.84600
      O    O405     0.10100   86.64700    2.43900
      C    C406    -0.74400   83.43300    2.80300
      C    C407     0.45200   83.05800    1.95800
      C    C408     1.69200   82.83100    2.54000
      C    C409     0.33400   82.90400    0.57600
      C    C410     2.78700   82.47700    1.77300
      C    C411     1.42100   82.54800   -0.19600
      C    C412     2.64500   82.33600    0.40600
      O    O413     3.73200   81.97900   -0.35900
      N    N414    -2.10600   86.21500    2.61400
      C    C415    -2.53500   87.46100    1.98800
      C    C416    -2.00700   88.68700    2.72800
      O    O417    -1.39200   89.57500    2.11900
      C    C418    -4.05500   87.51400    1.91600
      N    N419    -2.25000   88.73100    4.03800
      N    N420    -2.23500   88.73800    4.03700
      C    C421    -1.85000   89.87900    4.85200
      C    C422    -1.84900   89.91800    4.80700
      C    C423    -0.34100   90.11100    4.79800
      C    C424    -0.33000   90.12300    4.82200
      O    O425     0.13200   91.24500    4.60600
      O    O426     0.16200   91.25800    4.68800
      C    C427    -2.29900   89.69200    6.30400
      C    C428    -2.40000   89.82000    6.22900
      C    C429    -3.81000   89.67600    6.50400
      C    C430    -3.92100   89.72900    6.26600
      C    C431    -4.17600   89.86100    7.97800
      C    C432    -4.47800   89.90500    7.67100
      N    N433    -5.61300   89.73400    8.22300
      N    N434    -5.91500   89.63700    7.72300
      C    C435    -6.15600   88.85500    9.06200
      C    C436    -6.85800   90.55800    7.54800
      N    N437    -5.38500   88.02000    9.74600
      N    N438    -8.13700   90.21600    7.61400
      N    N439    -7.47300   88.81300    9.21900
      N    N440    -6.52400   91.81900    7.30700
      N    N441     0.41000   89.02700    4.96000
      C    C442     1.86500   89.09500    4.93300
      C    C443     2.33900   89.56500    3.56500
      O    O444     3.28200   90.35800    3.46200
      C    C445     2.48700   87.74400    5.28600
      C    C446     2.35400   87.37900    6.75600
      C    C447     3.48000   86.45500    7.19700
      C    C448     2.96900   85.10200    7.68300
      N    N449     2.41000   85.16900    9.05200
      N    N450     1.66700   89.10100    2.51500
      C    C451     1.97300   89.58700    1.18200
      C    C452     1.78800   91.09900    1.10400
      O    O453     2.65500   91.80200    0.58000
      C    C454     1.10700   88.91300    0.12100
      C    C455     1.32600   89.51900   -1.24700
      C    C456     2.39900   89.12300   -2.04000
      C    C457     0.48100   90.50900   -1.73400
      C    C458     2.61400   89.68600   -3.28300
      C    C459     0.69000   91.07900   -2.97200
      C    C460     1.75500   90.66200   -3.74600
      O    O461     1.96000   91.22900   -4.98500
      N    N462     0.66100   91.59600    1.61300
      C    C463     0.42300   93.04200    1.63000
      C    C464     1.55400   93.79000    2.32500
      O    O465     2.04200   94.81100    1.81600
      C    C466    -0.90000   93.37500    2.31400
      C    C467    -2.10800   92.74400    1.65200
      C    C468    -3.33100   93.60500    1.87300
      N    N469    -3.24100   94.83800    1.10400
      C    C470    -3.99500   95.90900    1.31300
      N    N471    -4.90000   95.90800    2.28500
      N    N472    -3.83600   96.98600    0.55600
      N    N473     1.97800   93.28200    3.48100
      C    C474     3.12100   93.89000    4.17300
      C    C475     4.35900   93.93300    3.27100
      O    O476     5.04000   94.97100    3.15400
      C    C477     3.43900   93.13200    5.46300
      C    C478     2.37100   93.25800    6.53900
      C    C479     2.61300   92.33300    7.71800
      O    O480     3.53800   91.52000    7.70900
      N    N481     1.77700   92.45300    8.74200
      N    N482     4.62900   92.80500    2.61700
      C    C483     5.77500   92.68600    1.72200
      C    C484     5.72600   93.73700    0.61500
      O    O485     6.74400   94.35100    0.26600
      C    C486     5.84000   91.28600    1.09800
      O    O487     5.78400   90.30400    2.13800
      C    C488     7.12700   91.10900    0.32500
      N    N489     4.52800   93.95900    0.08700
      C    C490     4.34000   94.92500   -0.98600
      C    C491     4.56700   96.33300   -0.47800
      O    O492     5.18900   97.14500   -1.16400
      C    C493     2.94000   94.81500   -1.61300
      C    C494     2.89300   93.60300   -2.53200
      C    C495     2.61000   96.05000   -2.43400
      C    C496     3.97700   93.61400   -3.58500
      N    N497     4.07500   96.62100    0.72500
      C    C498     4.32800   97.92300    1.33300
      C    C499     5.83200   98.18200    1.44700
      O    O500     6.33300   99.27500    1.10600
      C    C501     3.66400   98.01000    2.69500
      N    N502     6.55900   97.16800    1.90800
      C    C503     8.00400   97.31700    2.06200
      C    C504     8.67000   97.56500    0.70300
      O    O505     9.53500   98.44800    0.56000
      C    C506     8.59800   96.09300    2.74600
      N    N507     8.24300   96.80200   -0.30000
      C    C508     8.76800   96.97100   -1.65300
      C    C509     8.49400   98.37400   -2.20500
      O    O510     9.32600   98.94600   -2.91000
      C    C511     8.18900   95.92000   -2.57000
      N    N512     7.33200   98.92700   -1.87500
      C    C513     6.98900  100.28300   -2.28400
      C    C514     7.91400  101.28200   -1.60800
      O    O515     8.34500  102.25300   -2.23400
      C    C516     5.54000  100.59300   -1.95900
      N    N517     8.21700  101.05300   -0.33100
      C    C518     9.18300  101.91700    0.35000
      C    C519    10.53500  101.89000   -0.36900
      O    O520    11.11500  102.94600   -0.68600
      C    C521     9.37900  101.51500    1.82900
      C    C522    10.58300  102.23500    2.42300
      C    C523     8.13000  101.82700    2.63400
      N    N524    11.02100  100.68200   -0.64900
      C    C525    12.29500  100.51900   -1.35400
      C    C526    12.30300  101.24200   -2.70500
      O    O527    13.24700  101.97100   -3.02900
      C    C528    12.62400   99.02600   -1.57300
      C    C529    13.64800   98.85900   -2.68000
      C    C530    13.12100   98.39300   -0.27500
      N    N531    11.24100  101.05300   -3.47900
      C    C532    11.12400  101.69500   -4.78500
      C    C533    11.11900  103.21200   -4.67900
      O    O534    11.80700  103.89100   -5.43800
      C    C535     9.85700  101.23800   -5.50200
      C    C536     9.83600   99.81900   -6.05800
      C    C537     8.46300   99.53000   -6.62200
      C    C538    10.91000   99.64800   -7.12000
      N    N539    10.32800  103.74300   -3.75100
      C    C540    10.24900  105.18700   -3.57800
      C    C541    11.60900  105.75800   -3.19500
      O    O542    11.99800  106.82600   -3.68000
      C    C543     9.20300  105.55800   -2.52600
      C    C544     9.11800  107.05100   -2.24900
      C    C545     8.96400  107.87600   -3.51500
      O    O546     8.13800  107.50400   -4.37900
      O    O547     9.67400  108.89600   -3.65000
      N    N548    12.34200  105.04700   -2.34100
      C    C549    13.68500  105.50300   -1.99400
      C    C550    14.61100  105.45500   -3.20900
      O    O551    15.45500  106.33700   -3.39500
      C    C552    14.27100  104.67400   -0.85100
      C    C553    15.67200  105.11100   -0.43700
      C    C554    15.78200  106.61300   -0.20400
      O    O555    14.88500  107.18800    0.44900
      O    O556    16.76700  107.22100   -0.67900
      N    N557    14.44400  104.43400   -4.04300
      C    C558    15.23900  104.32300   -5.26400
      C    C559    14.99300  105.50800   -6.19800
      O    O560    15.93800  106.11400   -6.71400
      C    C561    14.93200  103.01100   -5.98100
      C    C562    15.81200  102.75000   -7.16700
      C    C563    17.16000  103.07500   -7.13200
      C    C564    15.29600  102.16300   -8.31400
      C    C565    17.97500  102.83100   -8.22300
      C    C566    16.10500  101.91400   -9.40700
      C    C567    17.44700  102.24900   -9.36100
      N    N568    13.72000  105.83600   -6.40000
      C    C569    13.33000  106.96500   -7.23800
      C    C570    13.85700  108.27800   -6.67400
      O    O571    14.31900  109.14800   -7.41900
      C    C572    11.82500  107.02200   -7.37500
      N    N573    13.78100  108.42000   -5.35400
      C    C574    14.32200  109.60100   -4.69800
      C    C575    15.81500  109.72200   -4.99600
      O    O576    16.30600  110.80500   -5.33100
      C    C577    14.08000  109.54900   -3.19000
      C    C578    14.41200  110.82600   -2.48400
      N    N579    15.65800  111.08000   -1.95200
      C    C580    13.66300  111.92500   -2.23000
      C    C581    15.66000  112.27900   -1.39700
      N    N582    14.46200  112.81300   -1.55300
      N    N583    16.52300  108.60000   -4.89100
      C    C584    17.95500  108.56400   -5.17900
      C    C585    18.25100  108.96400   -6.62100
      O    O586    19.18200  109.72900   -6.88000
      C    C587    18.51900  107.18300   -4.89200
      N    N588    17.45800  108.44800   -7.55500
      C    C589    17.61300  108.80000   -8.96400
      C    C590    17.41800  110.29900   -9.18200
      O    O591    18.19400  110.93300   -9.89700
      C    C592    16.63000  108.00600   -9.83000
      C    C593    16.87200  106.49500   -9.87200
      C    C594    15.72100  105.76900  -10.56000
      C    C595    18.19100  106.18700  -10.56300
      N    N596    16.38600  110.86300   -8.56100
      C    C597    16.14800  112.30000   -8.64700
      C    C598    17.33800  113.09100   -8.10400
      O    O599    17.78300  114.06600   -8.72000
      C    C600    14.87700  112.70500   -7.88600
      O    O601    13.73200  112.15400   -8.54800
      C    C602    14.74200  114.21800   -7.83600
      N    N603    17.85400  112.65700   -6.95600
      C    C604    19.00200  113.30800   -6.32700
      C    C605    20.23300  113.29200   -7.23500
      O    O606    20.90600  114.31600   -7.40600
      C    C607    19.35700  112.64000   -4.98600
      O    O608    18.26800  112.80000   -4.06600
      C    C609    20.60700  113.26400   -4.39300
      N    N610    20.51900  112.12900   -7.81600
      C    C611    21.61600  111.99600   -8.75800
      C    C612    21.41600  112.89700   -9.96200
      O    O613    22.36600  113.49900  -10.47600
      N    N614    20.16500  112.99900  -10.40300
      C    C615    19.81400  113.84700  -11.53500
      C    C616    20.10800  115.31800  -11.24600
      O    O617    20.70500  116.00200  -12.07100
      C    C618    18.35200  113.66300  -11.90300
      N    N619    19.68600  115.80100  -10.08000
      C    C620    19.94800  117.18800   -9.69300
      C    C621    21.44700  117.44500   -9.56000
      O    O622    21.97300  118.44900  -10.06400
      C    C623    19.23800  117.52800   -8.37900
      C    C624    17.73100  117.37600   -8.47300
      O    O625    17.19800  117.40000   -9.60300
      O    O626    17.07900  117.23500   -7.41600
      N    N627    22.12500  116.52400   -8.88100
      C    C628    23.56900  116.59700   -8.68800
      C    C629    24.33600  116.71100  -10.00600
      O    O630    25.22400  117.55400  -10.14100
      C    C631    24.04900  115.37200   -7.90800
      C    C632    25.54700  115.13800   -7.95500
      C    C633    25.91200  113.87500   -7.19400
      C    C634    27.36800  113.49400   -7.40400
      N    N635    27.71200  112.24300   -6.67100
      N    N636    23.99500  115.86600  -10.97400
      C    C637    24.68500  115.87800  -12.26400
      C    C638    24.21800  116.99700  -13.19600
      O    O639    24.94400  117.39100  -14.10900
      C    C640    24.52700  114.52500  -12.96100
      C    C641    25.51600  113.49200  -12.47700
      C    C642    26.79000  113.41700  -13.02400
      C    C643    25.18300  112.59900  -11.46700
      C    C644    27.70200  112.47800  -12.58400
      C    C645    26.08900  111.65500  -11.01900
      C    C646    27.34700  111.60000  -11.58100
      O    O647    28.25400  110.66300  -11.14100
      N    N648    23.01000  117.50300  -12.97000
      C    C649    22.47900  118.59200  -13.78400
      C    C650    23.10400  119.91700  -13.37600
      O    O651    23.37800  120.76800  -14.22500
      C    C652    20.96600  118.66400  -13.67300
      N    N653    23.32600  120.09400  -12.07600
      C    C654    24.00600  121.29300  -11.59200
      C    C655    25.45400  121.33300  -12.08400
      O    O656    26.03300  122.40700  -12.25300
      C    C657    23.98400  121.38300  -10.05200
      O    O658    24.41900  120.13800   -9.48900
      C    C659    22.58000  121.69200   -9.55500
      N    N660    26.02500  120.15600  -12.32500
      C    C661    27.38900  120.04700  -12.83300
      C    C662    27.42500  120.21300  -14.35000
      O    O663    28.14300  121.06500  -14.87500
      C    C664    28.00000  118.71200  -12.43200
