# CIF file generated by openbabel 2.3.2, see http://openbabel.sf.net
data_I
_chemical_name_common '../proteins/pdb/4WX9.pdb'
_cell_length_a 43.481
_cell_length_b 102.905
_cell_length_c 137.093
_cell_angle_alpha 90
_cell_angle_beta 90
_cell_angle_gamma 90
_space_group_name_H-M_alt 'P 21 21 21'
_space_group_name_Hall 'P 2ac 2ab'
loop_
    _symmetry_equiv_pos_as_xyz
    'x,y,z'
    '1/2-x,-y,1/2+z'
    '-x,1/2+y,1/2-z'
    '1/2+x,1/2-y,-z'
loop_
    _atom_site_type_symbol
    _atom_site_label
    _atom_site_Cartn_x
    _atom_site_Cartn_y
    _atom_site_Cartn_z
      O    O1   -23.19100  -10.07800    1.72700
      C    C2   -22.75500   -9.78400    3.06900
      C    C3   -22.17200   -8.39100    3.15200
      O    O4   -22.58000   -7.75100    4.38800
      C    C5   -20.64400   -8.31900    3.14600
      O    O6   -20.28500   -7.11100    2.46000
      C    C7   -20.31000   -8.25800    4.62600
      C    C8   -21.42500   -7.35800    5.12500
      N    N9   -21.74100   -7.45900    6.54700
      C    C10   -21.75800   -8.59900    7.31500
      N    N11   -22.10000   -8.37700    8.55500
      C    C12   -22.32700   -7.00900    8.61000
      C    C13   -22.72800   -6.18600    9.69400
      O    O14   -22.96900   -6.51200   10.86300
      N    N15   -22.84200   -4.85300    9.30900
      C    C16   -22.60100   -4.37100    8.04500
      N    N17   -22.76700   -3.05000    7.87200
      N    N18   -22.22900   -5.12700    7.02600
      C    C19   -22.11100   -6.42700    7.37800
      P    P20   -18.76200   -6.79900    2.04700
      O    O21   -18.55600   -7.28400    0.66100
      O    O22   -17.87000   -7.27600    3.13400
      O    O23   -18.73300   -5.20700    1.98700
      C    C24   -17.62900   -4.45000    2.51200
      C    C25   -18.13400   -3.44100    3.51500
      O    O26   -18.77500   -4.12700    4.60500
      C    C27   -17.03400   -2.60100    4.15200
      O    O28   -16.90100   -1.37300    3.43200
      C    C29   -17.52400   -2.36200    5.57100
      C    C30   -18.67300   -3.34700    5.78500
      N    N31   -18.48800   -4.26700    6.91900
      C    C32   -18.29200   -3.73600    8.19800
      O    O33   -18.28800   -2.50600    8.34300
      N    N34   -18.12900   -4.57600    9.24500
      C    C35   -18.15700   -5.89700    9.05000
      N    N36   -17.99100   -6.69100   10.11100
      C    C37   -18.35000   -6.46300    7.75600
      C    C38   -18.50800   -5.62000    6.72900
      P    P39   -15.45400   -0.78900    3.10500
      O    O40   -15.62000    0.49200    2.38200
      O    O41   -14.62700   -1.88000    2.51900
      O    O42   -14.91700   -0.38400    4.53800
      C    C43   -13.61300   -0.76400    4.97000
      C    C44   -13.51700   -0.37300    6.42100
      O    O45   -14.50700   -1.11300    7.15300
      C    C46   -12.19200   -0.66300    7.11200
      O    O47   -11.27800    0.43900    6.95600
      C    C48   -12.60700   -0.87900    8.55800
      C    C49   -14.09200   -1.25600    8.49600
      N    N50   -14.39800   -2.63200    8.90000
      C    C51   -14.87100   -2.87500   10.19400
      O    O52   -14.99900   -1.92000   10.97600
      N    N53   -15.15900   -4.14300   10.56500
      C    C54   -14.99500   -5.14400    9.69700
      N    N55   -15.28500   -6.38100   10.10200
      C    C56   -14.53100   -4.92100    8.36800
      C    C57   -14.24800   -3.66300    8.01500
      P    P58   -11.81400    1.94200    6.60300
      O    O59   -13.08600    2.17900    7.33300
      O    O60   -11.72900    2.15000    5.13700
      O    O61   -10.74000    2.91100    7.26600
      C    C62    -9.34300    2.57900    7.29500
      C    C63    -8.73200    3.07600    8.58400
      O    O64    -8.70900    4.52400    8.58500
      C    C65    -9.48700    2.66200    9.84900
      O    O66    -8.58400    2.22500   10.85300
      C    C67   -10.16300    3.93700   10.31000
      C    C68    -9.20100    4.99700    9.82400
      N    N69    -9.83900    6.28800    9.59600
      C    C70   -10.67200    6.66500    8.57300
      N    N71   -11.11100    7.89600    8.67700
      C    C72   -10.54300    8.35400    9.85700
      C    C73   -10.61500    9.59100   10.53000
      N    N74   -11.32300   10.63500   10.09100
      N    N75    -9.91700    9.72200   11.68000
      C    C76    -9.20900    8.67400   12.12300
      N    N77    -9.07000    7.46300   11.58600
      C    C78    -9.76700    7.36900   10.44000
      P    P79    -8.53300    0.70600   11.20400
      O    O80    -7.85900    0.00900   10.07800
      O    O81    -9.90800    0.29900   11.60000
      O    O82    -7.64400    0.69700   12.51800
      C    C83    -8.13700    1.33400   13.70400
      C    C84    -7.94200    0.42000   14.89000
      O    O85    -8.45300   -0.89200   14.57100
      C    C86    -6.48200    0.21500   15.29800
      O    O87    -6.34200    0.38500   16.71300
      C    C88    -6.18000   -1.20000   14.83800
      C    C89    -7.52200   -1.85800   14.99400
      N    N90    -7.72700   -3.06200   14.18300
      C    C91    -8.08700   -4.21700   14.83900
      O    O92    -8.21400   -4.28300   16.05100
      N    N93    -8.29000   -5.30000   14.02200
      C    C94    -8.18700   -5.33600   12.64600
      O    O95    -8.38300   -6.38800   12.04600
      C    C96    -7.81700   -4.08600   12.02200
      C    C97    -7.66800   -4.03400   10.53400
      C    C98    -7.61700   -3.02300   12.81200
      P    P99    -4.92300    0.14100   17.41200
      O    O100    -4.96000    0.76700   18.75800
      O    O101    -3.86300    0.53100   16.44800
      O    O102    -4.88100   -1.44100   17.59600
      C    C103    -5.27300   -2.05100   18.84000
      C    C104    -4.55000   -3.36400   19.02800
      O    O105    -4.91600   -4.27200   17.96200
      C    C106    -3.02500   -3.26500   18.98700
      O    O107    -2.44100   -4.21500   19.88300
      C    C108    -2.69600   -3.61600   17.54800
      C    C109    -3.76700   -4.64000   17.21100
      N    N110    -4.14500   -4.66800   15.80200
      C    C111    -4.09900   -3.62300   14.91100
      N    N112    -4.50200   -3.95300   13.71400
      C    C113    -4.83400   -5.29600   13.82100
      C    C114    -5.33300   -6.20000   12.84700
      O    O115    -5.58900   -5.98600   11.65600
      N    N116    -5.53200   -7.46800   13.38200
      C    C117    -5.28400   -7.82400   14.68500
      N    N118    -5.54100   -9.10000   15.00900
      N    N119    -4.82000   -6.99200   15.60200
      C    C120    -4.61900   -5.75300   15.10400
      P    P121    -2.36500   -3.90100   21.44900
      O    O122    -3.45500   -4.68700   22.13700
      O    O123    -2.28900   -2.40200   21.62100
      O    O124    -0.94700   -4.53000   21.86300
      N    N125    -0.31200   -6.92700   24.35000
      C    C126    -0.44000   -7.63400   25.47600
      N    N127     0.02800   -8.82000   25.88700
      C    C128    -0.25500   -9.32200   27.10300
      O    O129     0.21600  -10.43600   27.42000
      N    N130    -1.06800   -8.63300   28.03600
      C    C131    -1.34200   -9.22900   29.34600
      C    C132    -2.28400  -10.40100   29.17900
      O    O133    -2.33300   -6.74900   28.51500
      C    C134    -1.61300   -7.37700   27.70800
      C    C135    -1.29700   -6.83000   26.36800
      N    N136    -1.60700   -5.70800   25.69200
      C    C137    -1.00600   -5.78200   24.47800
      C    C138    -0.52900   -7.94200   22.22600
      C    C139    -0.06000   -4.91600   20.81700
      C    C140     0.75200   -6.13500   21.23100
      O    O141     0.98300   -6.13300   22.63500
      C    C142     0.42800   -7.31600   23.21400
      C    C143     0.05200   -7.44700   20.93600
      O    O144     1.11000   -8.31800   20.58700
      P    P145     1.85700   -8.07600   19.22100
      O    O146     3.14100   -7.38000   19.49200
      O    O147     0.87200   -7.46500   18.29300
      O    O148     2.18500   -9.54900   18.71200
      C    C149     1.18200  -10.58200   18.74100
      C    C150     1.59100  -11.73100   17.84900
      O    O151     1.18300  -11.45200   16.48900
      C    C152     3.09600  -11.98800   17.78900
      O    O153     3.35600  -13.38700   17.63800
      C    C154     3.52500  -11.22800   16.54800
      C    C155     2.31900  -11.38500   15.63600
      N    N156     2.11700  -10.26500   14.70600
      C    C157     1.75700  -10.54300   13.38500
      O    O158     1.61900  -11.72500   13.03800
      N    N159     1.56900   -9.51900   12.52200
      C    C160     1.72800   -8.26000   12.93600
      N    N161     1.53200   -7.28000   12.05000
      C    C162     2.09400   -7.94900   14.27800
      C    C163     2.27700   -8.97200   15.12100
      P    P164     4.84800  -13.94400   17.78800
      O    O165     4.82200  -15.05700   18.75800
      O    O166     5.74200  -12.78900   18.03400
      O    O167     5.11500  -14.63600   16.37300
      C    C168     4.05100  -14.83800   15.40000
      C    C169     4.56700  -14.92300   13.97700
      O    O170     4.19000  -13.74900   13.20800
      C    C171     6.08500  -15.06500   13.83100
      O    O172     6.38700  -16.14000   12.94400
      C    C173     6.53600  -13.72500   13.27400
      C    C174     5.31600  -13.24000   12.50500
      N    N175     5.17500  -11.76400   12.41200
      C    C176     4.70200  -11.21500   11.23700
      O    O177     4.37900  -11.88200   10.27000
      N    N178     4.61500   -9.84700   11.23900
      C    C179     4.94200   -8.99100   12.27200
      O    O180     4.80400   -7.78000   12.12800
      C    C181     5.43700   -9.63300   13.47300
      C    C182     5.82800   -8.78500   14.64300
      C    C183     5.53000  -10.96800   13.48000
      P    P184     7.87900  -16.67100   12.84100
      O    O185     7.84400  -18.14700   12.96300
      O    O186     8.71900  -15.86400   13.76000
      O    O187     8.27300  -16.31900   11.34000
      C    C188     7.38200  -16.65300   10.25900
      C    C189     7.91300  -16.11100    8.95300
      O    O190     7.46700  -14.74700    8.78800
      C    C191     9.43900  -16.08700    8.85300
      O    O192     9.86900  -17.22300    8.09300
      C    C193     9.75200  -14.77200    8.16200
      C    C194     8.53800  -13.89700    8.40500
      N    N195     8.71600  -12.90600    9.45700
      C    C196     9.16200  -13.10100   10.73900
      N    N197     9.18400  -12.00700   11.46100
      C    C198     8.72700  -11.02600   10.59300
      C    C199     8.52800   -9.64700   10.74800
      N    N200     8.77400   -8.98600   11.88100
      N    N201     8.06300   -8.95700    9.68400
      C    C202     7.81800   -9.61900    8.54700
      N    N203     7.97000  -10.91100    8.27900
      C    C204     8.43300  -11.56700    9.35700
      P    P205    11.36600  -17.30500    7.53100
      O    O206    11.64600  -18.71400    7.14000
      O    O207    12.26700  -16.58200    8.47400
      O    O208    11.27700  -16.49000    6.17100
      C    C209    12.45700  -15.90400    5.63200
      C    C210    12.10200  -14.73700    4.74700
      O    O211    11.44800  -13.70300    5.51900
      C    C212    13.33600  -14.09400    4.12600
      O    O213    13.10700  -13.88000    2.73800
      C    C214    13.54100  -12.83400    4.94600
      C    C215    12.13000  -12.47300    5.35700
      N    N216    12.04100  -11.74400    6.61600
      C    C217    12.22800  -12.24100    7.88400
      N    N218    12.07200  -11.33900    8.81500
      C    C219    11.76900  -10.17700    8.11900
      C    C220    11.49700   -8.86600    8.59100
      O    O221    11.46900   -8.45600    9.75800
      N    N222    11.24400   -7.98700    7.54200
      C    C223    11.23700   -8.32700    6.21200
      N    N224    10.96500   -7.33800    5.34900
      N    N225    11.49100   -9.54300    5.75900
      C    C226    11.74700  -10.41100    6.76100
      P    P227    14.33800  -13.84100    1.74900
      O    O228    14.00700  -14.68000    0.57200
      O    O229    15.57100  -14.13200    2.53400
      O    O230    14.36900  -12.31000    1.31800
      C    C231    15.52300  -11.51800    1.59200
      C    C232    15.24600  -10.08200    1.22700
      O    O233    14.48400   -9.45800    2.28600
      C    C234    16.50400   -9.23600    1.05900
      O    O235    16.30000   -8.24400    0.05200
      C    C236    16.67900   -8.60700    2.42600
      C    C237    15.24200   -8.40900    2.87600
      N    N238    15.05100   -8.48100    4.33300
      C    C239    14.49000   -7.39800    4.97100
      O    O240    14.14700   -6.38200    4.38900
      N    N241    14.33900   -7.55300    6.32700
      C    C242    14.68700   -8.65500    7.08600
      O    O243    14.49200   -8.65000    8.29600
      C    C244    15.27700   -9.74700    6.35400
      C    C245    15.69800  -10.97500    7.09800
      C    C246    15.42600   -9.60900    5.03100
      P    P247    17.54800   -7.49600   -0.58900
      O    O248    17.32100   -7.41300   -2.05400
      O    O249    18.78600   -8.13900   -0.07200
      O    O250    17.44600   -6.03700    0.04400
      C    C251    16.67100   -4.99800   -0.58800
      C    C252    16.94100   -3.67000    0.08100
      O    O253    16.66300   -3.78900    1.49600
      C    C254    18.38600   -3.18100   -0.03100
      O    O255    18.45100   -1.76800   -0.24900
      C    C256    19.00200   -3.58400    1.29600
      C    C257    17.82700   -3.51500    2.26200
      N    N258    17.87500   -4.47800    3.36300
      C    C259    18.30500   -5.78200    3.32000
      N    N260    18.22200   -6.40400    4.47000
      C    C261    17.70300   -5.44700    5.33000
      C    C262    17.38200   -5.48200    6.69400
      N    N263    17.54200   -6.56400    7.46000
      N    N264    16.88800   -4.35400    7.25300
      C    C265    16.72300   -3.27300    6.47800
      N    N266    16.98800   -3.11900    5.18200
      C    C267    17.48200   -4.25600    4.66100
