# CIF file generated by openbabel 2.3.2, see http://openbabel.sf.net
data_I
_chemical_name_common '../proteins/pdb/5E0Y.pdb'
_cell_length_a 41.658
_cell_length_b 41.658
_cell_length_c 122.517
_cell_angle_alpha 90
_cell_angle_beta 90
_cell_angle_gamma 120
_space_group_name_H-M_alt 'P 65 2 2'
_space_group_name_Hall 'P 65 2 (0 0 1)'
loop_
    _symmetry_equiv_pos_as_xyz
    'x,y,z'
    '-y,x-y,2/3+z'
    '-x+y,-x,1/3+z'
    '-x,-y,1/2+z'
    'y,-x+y,1/6+z'
    'x-y,x,5/6+z'
    'y,x,2/3-z'
    'x-y,-y,-z'
    '-x,-x+y,1/3-z'
    '-y,-x,1/6-z'
    '-x+y,y,1/2-z'
    'x,x-y,5/6-z'
loop_
    _atom_site_type_symbol
    _atom_site_label
    _atom_site_Cartn_x
    _atom_site_Cartn_y
    _atom_site_Cartn_z
      N    N1    14.27400   10.04600   51.69700
      C    C2    12.88400   10.35100   51.23600
      C    C3    11.73800    9.38000   51.59600
      O    O4    11.33600    8.44200   50.86600
      C    C5    12.90200   10.62100   49.73100
      C    C6    11.56600   10.98800   49.16200
      O    O7    11.11700   10.33200   48.19500
      N    N8    10.82500   11.84400   49.87600
      N    N9    11.19800    9.64800   52.77600
      N    N10    11.21800    9.63500   52.78300
      C    C11    10.01300    8.99200   53.26900
      C    C12    10.00800    9.00600   53.23100
      C    C13     9.10000   10.03300   53.92400
      C    C14     9.15600    9.98400   54.06400
      O    O15     7.92100    9.75500   54.15100
      O    O16     8.07100    9.61300   54.53000
      C    C17    10.37800    7.91400   54.26800
      C    C18    10.32700    7.74300   54.01900
      C    C19     9.26500    6.92000   54.60300
      C    C20    11.03900    7.94400   55.34800
      C    C21     9.79700    5.56900   55.08600
      C    C22    11.86300    6.72400   55.77100
      O    O23    10.97700    5.26300   54.91300
      O    O24    11.38400    5.85600   56.50500
      N    N25     8.91700    4.74700   55.67200
      N    N26    13.11300    6.66500   55.31500
      N    N27     9.64000   11.21900   54.23200
      C    C28     8.81000   12.36800   54.64900
      C    C29     9.48600   13.65900   54.18400
      O    O30    10.70400   13.82400   54.28700
      C    C31     8.52800   12.36200   56.16100
      C    C32     9.58000   13.02000   57.03700
      C    C33     9.64700   14.40200   57.16500
      C    C34    10.41900   12.25000   57.82900
      C    C35    10.57200   15.00100   58.00300
      C    C36    11.34900   12.84500   58.68400
      C    C37    11.41900   14.22600   58.77100
      N    N38     8.67100   14.55900   53.65200
      C    C39     9.15500   15.81200   53.09400
      C    C40     9.50300   16.80600   54.19400
      O    O41     8.70000   17.07400   55.08900
      C    C42     8.11500   16.44400   52.14500
      C    C43     8.65500   17.72300   51.54400
      C    C44     7.73300   15.45700   51.05100
      N    N45    10.71400   17.34500   54.11400
      C    C46    11.21400   18.28300   55.11000
      C    C47    10.39300   19.56900   55.13400
      O    O48    10.21600   20.21800   54.10600
      C    C49    12.68400   18.60300   54.83200
      C    C50    13.38600   19.34700   55.94900
      S    S51    13.71600   18.30300   57.37800
      C    C52    14.47500   19.49600   58.48000
      N    N53     9.88000   19.93800   56.31500
      C    C54     9.15200   21.20000   56.47300
      C    C55    10.09900   22.39100   56.57800
      O    O56    11.29000   22.20600   56.83000
      C    C57     8.38600   20.99600   57.78100
      C    C58     9.26300   20.07900   58.57100
      C    C59     9.89900   19.15100   57.56000
      N    N60     9.57500   23.59700   56.38300
      C    C61    10.35700   24.80900   56.59600
      C    C62    10.29300   25.18700   58.07100
      O    O63     9.26600   25.66100   58.55200
      C    C64     9.84300   25.95200   55.71500
      C    C65    10.58900   27.25600   55.94800
      O    O66    11.70100   27.22700   56.51500
      O    O67    10.06200   28.31700   55.55800
      N    N68    11.39600   24.97500   58.78200
      C    C69    11.43200   25.17400   60.22500
      C    C70    11.87600   26.57700   60.62800
      O    O71    11.99400   26.87000   61.82100
      C    C72    12.36200   24.14600   60.87400
      C    C73    12.00900   22.66900   60.69700
      C    C74    13.14100   21.79500   61.19800
      C    C75    10.71400   22.33700   61.42400
      N    N76    12.13100   27.43300   59.64200
      C    C77    12.64000   28.78300   59.89900
      C    C78    11.76200   29.57100   60.87100
      O    O79    10.55300   29.68300   60.67800
      C    C80    12.76900   29.56400   58.58700
      O    O81    13.63600   28.90600   57.68100
      N    N82    12.38000   30.10500   61.91900
      C    C83    11.68500   30.96300   62.86200
      C    C84    11.14800   30.27700   64.10400
      O    O85    10.67900   30.94300   65.02300
      N    N86    11.21100   28.94900   64.13600
      C    C87    10.69600   28.19100   65.27300
      C    C88    11.71700   28.07600   66.39900
      O    O89    12.92000   28.02300   66.15200
      C    C90    10.27100   26.78300   64.83500
      C    C91     9.30400   26.73700   63.66600
      S    S92     8.69700   25.06200   63.36200
      C    C93     7.68300   24.80500   64.81000
      N    N94    11.23100   28.03300   67.63700
      C    C95    12.07800   27.67100   68.77100
      C    C96    12.28200   26.16000   68.76700
      O    O97    11.46600   25.42800   68.20800
      C    C98    11.45800   28.11700   70.09700
      C    C99    11.34600   29.60900   70.25300
      C    C100    12.45700   30.37200   70.58200
      C    C101    10.12900   30.24700   70.08300
      C    C102    12.35500   31.74300   70.73100
      C    C103    10.02300   31.61500   70.23300
      C    C104    11.13600   32.36300   70.55700
      N    N105    13.36000   25.69400   69.39000
      C    C106    13.65900   24.26400   69.43500
      C    C107    12.58700   23.49500   70.18900
      O    O108    12.32800   22.32900   69.89600
      C    C109    15.02500   24.01800   70.07700
      C    C110    15.33300   22.56700   70.33600
      C    C111    15.56700   21.98400   71.54900
      C    C112    15.43700   21.51600   69.36200
      N    N113    15.81300   20.64200   71.39000
      C    C114    15.74200   20.33300   70.06300
      C    C115    15.30700   21.46800   67.97300
      C    C116    15.92300   19.11500   69.41300
      C    C117    15.48200   20.25500   67.33600
      C    C118    15.78600   19.09600   68.05400
      N    N119    11.97700   24.16000   71.16500
      N    N120    11.95900   24.14900   71.16200
      C    C121    10.87200   23.59500   71.92700
      C    C122    10.87800   23.51900   71.91200
      C    C123     9.73300   23.21100   70.98000
      C    C124     9.67400   23.26000   71.01200
      O    O125     8.97000   22.28600   71.24500
      O    O126     8.78300   22.49000   71.36100
      C    C127    10.37500   24.59500   73.00500
      C    C128    10.43600   24.37300   73.11700
      C    C129     9.04900   24.16000   73.60700
      C    C130    11.56000   24.47400   74.13800
      C    C131    11.42400   24.76500   74.09200
      C    C132     9.99000   25.75200   72.66000
      N    N133     9.64800   23.90600   69.85100
      C    C134     8.58700   23.66600   68.88400
      C    C135     9.10200   22.95100   67.63400
      O    O136     8.36300   22.20800   66.98800
      C    C137     7.91800   24.98400   68.49900
      C    C138     7.29500   25.68500   69.68900
      O    O139     6.62900   25.00300   70.49500
      O    O140     7.47900   26.91300   69.82300
      N    N141    10.37200   23.16900   67.30200
      C    C142    10.95800   22.60000   66.09000
      C    C143    11.05600   21.07500   66.14300
      O    O144    10.68900   20.39500   65.18300
      C    C145    12.32800   23.20100   65.84000
      N    N146    11.54900   20.53500   67.25600
      C    C147    11.72200   19.08700   67.36300
      C    C148    10.41300   18.29800   67.38200
      O    O149    10.27000   17.34900   66.61200
      C    C150    12.53500   18.71600   68.60100
      C    C151    12.77200   17.21700   68.69700
      C    C152    13.71500   16.83500   69.81000
      O    O153    13.74800   17.55000   70.83400
      O    O154    14.42800   15.82100   69.65200
      N    N155     9.46100   18.66400   68.26600
      C    C156     8.22000   17.88400   68.26700
      C    C157     7.50400   17.90600   66.92400
      O    O158     6.76900   16.97300   66.61100
      C    C159     7.37000   18.57500   69.33600
      C    C160     7.95100   19.91800   69.49000
      C    C161     9.41400   19.73500   69.27800
      N    N162     7.71600   18.96100   66.14700
      C    C163     7.14800   19.02600   64.81100
      C    C164     7.78000   17.95400   63.93100
      O    O165     7.09000   17.27300   63.17200
      C    C166     7.35000   20.40700   64.19100
      C    C167     6.71300   20.52300   62.82100
      C    C168     6.81500   21.92000   62.23900
      N    N169     6.12700   21.98300   60.95500
      C    C170     6.14800   23.03100   60.14000
      N    N171     6.83100   24.12100   60.47000
      N    N172     5.48500   22.98200   58.99300
      N    N173     9.09600   17.80600   64.04400
      C    C174     9.81700   16.78800   63.29200
      C    C175     9.45900   15.38500   63.77900
      O    O176     9.20000   14.48800   62.97400
      C    C177    11.32800   17.01100   63.39100
      C    C178    11.88200   18.21000   62.62300
      C    C179    13.34300   18.44300   62.96900
      C    C180    11.70900   18.00800   61.12600
      N    N181     9.43900   15.20300   65.09500
      C    C182     9.12700   13.90600   65.68900
      C    C183     7.71500   13.44500   65.32500
      O    O184     7.47000   12.25100   65.15700
      C    C185     9.28000   13.96100   67.21300
      C    C186    10.68300   14.29400   67.70500
      C    C187    11.69200   13.23000   67.30200
      N    N188    13.04500   13.56800   67.74200
      C    C189    14.14900   12.98800   67.28100
      N    N190    14.06800   12.04300   66.35400
      N    N191    15.33800   13.35800   67.73800
      N    N192     6.79400   14.39600   65.20000
      C    C193     5.41000   14.08800   64.84900
      C    C194     5.29500   13.60900   63.40400
      O    O195     4.33000   12.93800   63.04000
      C    C196     4.52200   15.30300   65.07400
      N    N197     6.27800   13.96500   62.58300
      C    C198     6.31300   13.52500   61.19100
      C    C199     6.81900   12.09000   61.09700
      O    O200     6.74300   11.46000   60.04300
      C    C201     7.19600   14.45100   60.35100
      C    C202     6.71700   15.89500   60.18500
      C    C203     7.81500   16.75700   59.58400
      C    C204     5.46600   15.94800   59.32700
      N    N205     7.34300   11.58400   62.20800
      C    C206     7.86100   10.23200   62.25900
      C    C207     9.37100   10.18700   62.37700
      O    O208     9.95000    9.11000   62.49900
      N    N209    10.00600   11.35600   62.34700
      C    C210    11.46300   11.44500   62.39900
      C    C211    12.01900   10.82700   63.68000
      O    O212    11.68000   11.24800   64.78300
      C    C213    11.91900   12.90200   62.28200
      C    C214    13.41100   13.07100   62.33500
      C    C215    14.33100   12.50600   61.49600
      C    C216    14.15800   13.86800   63.26400
      N    N217    15.59900   12.89300   61.85100
      C    C218    15.52000   13.73200   62.93300
      C    C219    13.80400   14.68500   64.34400
      C    C220    16.53100   14.38000   63.64000
      C    C221    14.81000   15.32900   65.04600
      C    C222    16.15600   15.17000   64.69300
      N    N223    12.87100    9.81900   63.51500
      C    C224    13.49000    9.13700   64.64200
      C    C225    15.00100    9.32000   64.60700
      O    O226    15.72400    8.77700   65.44300
      C    C227    13.16300    7.63100   64.64400
      O    O228    13.56900    7.05300   63.39700
      C    C229    11.67000    7.40900   64.83700
      N    N230    15.46800   10.10000   63.63700
      C    C231    16.88800   10.30600   63.43400
      C    C232    17.56100   11.16600   64.48300
      O    O233    16.95100   11.55600   65.47700
      N    N234    18.83100   11.47200   64.24300
      C    C235    19.64900   12.20900   65.19700
      C    C236    19.72500   13.69600   64.85800
      O    O237    19.84000   14.07200   63.69100
      C    C238    21.05700   11.61100   65.24400
      C    C239    21.96200   12.19600   66.30800
      S    S240    23.61500   11.48200   66.22500
      C    C241    24.47000   12.46600   67.45000
      N    N242    19.65800   14.53800   65.88300
      C    C243    19.80900   15.97400   65.68900
      C    C244    21.26700   16.40500   65.75200
      O    O245    21.95700   16.16200   66.74200
      C    C246    19.01500   16.76000   66.73300
      C    C247    19.28000   18.26600   66.62400
      C    C248    18.38000   18.91600   65.57600
      C    C249    19.17000   18.96800   67.97200
      N    N250    21.72700   17.04500   64.68600
      C    C251    23.02200   17.70600   64.68300
      C    C252    22.82400   19.18100   65.00700
      O    O253    22.34400   19.94200   64.17000
      C    C254    23.71300   17.54800   63.32500
      C    C255    24.68100   16.38100   63.28900
      O    O256    24.67500   15.56600   64.23600
      O    O257    25.45000   16.27900   62.30800
      N    N258    23.17200   19.58700   66.22200
      C    C259    23.04900   20.99400   66.58300
      C    C260    24.29600   21.75200   66.14900
      O    O261    25.36900   21.59200   66.73300
      C    C262    22.81600   21.16900   68.08400
      C    C263    22.56000   22.61900   68.48300
      C    C264    22.39600   22.77600   69.98400
      C    C265    22.18500   24.23400   70.36000
      N    N266    23.31900   25.09500   69.91300
      N    N267    24.14600   22.57000   65.11500
      C    C268    25.26200   23.31600   64.56800
      C    C269    25.59300   24.55600   65.37000
      O    O270    24.98600   24.81500   66.41100
      N    N271    26.56300   25.32100   64.87900
      C    C272    26.98100   26.55200   65.53200
      C    C273    25.86900   27.59100   65.50100
      O    O274    25.15200   27.70700   64.50600
      C    C275    28.23900   27.10000   64.87200
      N    N276    25.73000   28.34100   66.59200
      C    C277    24.75700   29.42500   66.65200
      C    C278    25.05300   30.47700   65.59300
      O    O279    26.18000   30.60200   65.11900
      C    C280    24.73900   30.08600   68.03300
      C    C281    23.97900   29.27600   69.06100
      O    O282    23.25000   28.34000   68.67200
      O    O283    24.10100   29.58500   70.26400
      N    N284    24.02400   31.23000   65.22600
      C    C285    24.16000   32.29400   64.25000
      C    C286    23.72200   33.61200   64.86300
      O    O287    22.58400   33.74000   65.31900
      C    C288    23.31500   32.01600   63.00100
      C    C289    23.83600   32.81400   61.81600
      C    C290    23.30800   30.53100   62.70300
      N    N291    24.61700   34.59200   64.88400
      C    C292    24.24500   35.89800   65.40400
      C    C293    23.32800   36.56400   64.38000
      O    O294    23.79000   37.10900   63.37700
      C    C295    25.47500   36.75900   65.68700
      C    C296    25.12700   38.06000   66.38900
      O    O297    23.93500   38.27100   66.70800
      O    O298    26.05100   38.87100   66.62000
      N    N299    22.02500   36.50200   64.63200
      C    C300    21.03700   36.98400   63.67800
      C    C301    20.04400   37.95200   64.31300
      O    O302    18.86000   37.94800   63.97600
      C    C303    20.29700   35.80900   63.05700
      N    N304    20.52600   38.77700   65.23600
      C    C305    19.68800   39.78500   65.85700
      C    C306    18.82800   39.25100   66.98400
      O    O307    18.69100   38.03900   67.15600
      N    N308    18.24000   40.16700   67.74900
      C    C309    17.45000   39.80700   68.91100
      C    C310    16.19700   39.01400   68.59800
      O    O311    15.82800   38.11000   69.34500
      N    N312    15.54300   39.34500   67.48800
      C    C313    14.28400   38.69600   67.13200
      C    C314    14.48200   37.23400   66.74800
      O    O315    13.53700   36.44800   66.77300
      C    C316    13.60000   39.44400   65.98900
      O    O317    14.36600   39.36400   64.80100
      N    N318    15.71300   36.87100   66.39900
      C    C319    16.00500   35.51000   65.96200
      C    C320    16.65400   34.68100   67.06400
      O    O321    17.02600   33.53100   66.83900
      C    C322    16.90100   35.53100   64.72400
      C    C323    16.31700   34.77100   63.55700
      C    C324    14.92000   35.24100   63.20800
      O    O325    14.64800   36.44000   63.16700
      N    N326    14.01600   34.29300   62.98300
      N    N327    16.78000   35.27600   68.24800
      C    C328    17.38600   34.61700   69.40100
      C    C329    16.74200   33.26000   69.68600
      O    O330    15.54600   33.17400   69.96900
      C    C331    17.28100   35.52100   70.63100
      C    C332    17.76900   34.88700   71.89800
      N    N333    19.05000   35.06500   72.37400
      C    C334    17.14200   34.08600   72.79100
      C    C335    19.19300   34.39600   73.50200
      N    N336    18.05500   33.79100   73.78000
      N    N337    17.55200   32.21000   69.57700
      C    C338    17.13900   30.82900   69.83900
      C    C339    16.02600   30.33300   68.91000
      O    O340    15.30200   29.39200   69.24000
      C    C341    16.70900   30.67400   71.30200
      C    C342    16.91100   29.26400   71.82300
      O    O343    17.67900   28.48700   71.25600
      N    N344    16.22200   28.92500   72.90900
      N    N345    15.89600   30.97200   67.75100
      C    C346    14.99300   30.50000   66.70400
      C    C347    15.80300   29.85300   65.58500
      O    O348    16.97700   30.17400   65.39600
      C    C349    14.14600   31.64600   66.14500
      C    C350    13.14600   32.24900   67.12600
      C    C351    12.36100   33.36900   66.46100
      N    N352    11.44000   34.03500   67.37600
      C    C353    10.20100   33.62300   67.62600
      N    N354     9.43400   34.29700   68.47300
      N    N355     9.72900   32.53600   67.03100
      N    N356    15.17500   28.95300   64.83400
      C    C357    15.85600   28.25800   63.74400
      C    C358    16.29000   29.22500   62.64800
      O    O359    15.47300   29.97300   62.10900
      C    C360    14.95900   27.16700   63.12500
      C    C361    15.59400   26.60200   61.86000
      C    C362    14.68900   26.06100   64.13500
      N    N363    17.58100   29.20700   62.32600
      C    C364    18.12200   30.05900   61.27200
      C    C365    18.48600   29.23400   60.03400
      O    O366    18.13600   29.60300   58.91200
      C    C367    19.35200   30.84400   61.75900
      C    C368    19.97000   31.62800   60.61600
      C    C369    18.95800   31.77900   62.89200
      N    N370    19.21400   28.13800   60.22800
      N    N371    19.16600   28.11400   60.25500
      C    C372    19.46500   27.20000   59.13400
      C    C373    19.49000   27.18700   59.17700
      C    C374    18.95400   25.80900   59.46700
      C    C375    18.99700   25.78000   59.47800
      O    O376    18.83700   25.43900   60.63400
      O    O377    18.91300   25.37300   60.63600
      C    C378    20.95400   27.09300   58.78900
      C    C379    20.99700   27.15500   58.92300
      C    C380    21.69500   28.39500   58.57800
      C    C381    21.46800   28.21900   57.96600
      C    C382    21.78600   28.97700   57.31800
      C    C383    21.13100   28.16500   56.62000
      C    C384    22.35400   29.01200   59.62900
      C    C385    22.25300   29.27500   58.40400
      C    C386    22.48600   30.16000   57.12700
      C    C387    21.55800   29.13600   55.73900
      C    C388    23.05400   30.18300   59.44300
      C    C389    22.68500   30.24700   57.53000
      C    C390    23.11700   30.75200   58.20000
      C    C391    22.33500   30.17500   56.20000
      O    O392    23.81900   31.91500   58.05200
      O    O393    22.76400   31.14600   55.32600
      N    N394    18.67900   25.03700   58.42400
      C    C395    18.28400   23.65000   58.57100
      C    C396    18.88800   22.83000   57.44100
      O    O397    19.14600   23.34400   56.35100
      C    C398    16.76200   23.50800   58.57600
      C    C399    16.11200   23.76100   57.22300
      C    C400    14.60700   23.60800   57.26800
      O    O401    13.90500   24.47000   57.79500
      N    N402    14.10300   22.50100   56.72600
      N    N403    19.13700   21.55800   57.71900
      C    C404    19.53800   20.61600   56.69000
      C    C405    18.88300   19.27200   56.97600
      O    O406    18.98400   18.76200   58.08900
      C    C407    21.06000   20.48000   56.62400
      C    C408    21.52300   19.71700   55.39800
      O    O409    21.28300   20.13700   54.26500
      N    N410    22.19500   18.59200   55.61800
      N    N411    18.20000   18.69100   55.97700
      C    C412    18.00900   19.14900   54.59500
      C    C413    17.11200   20.38300   54.47900
      O    O414    16.38600   20.69600   55.41800
      C    C415    17.34100   17.94100   53.91700
      C    C416    17.59600   16.78500   54.82500
      C    C417    17.58900   17.37000   56.19400
      N    N418    17.16400   21.08200   53.33500
      C    C419    16.26600   22.22400   53.13000
      C    C420    14.81400   21.78100   53.00200
      O    O421    14.55800   20.60500   52.74600
      C    C422    16.77200   22.83900   51.82000
      C    C423    17.46400   21.71900   51.11800
      C    C424    18.08800   20.89500   52.20200
      N    N425    13.88200   22.71100   53.18400
      C    C426    12.46400   22.40400   53.03600
      C    C427    12.17300   21.87700   51.63400
      O    O428    12.77300   22.32600   50.65900
      C    C429    11.62100   23.63200   53.32700
      N    N430    11.26300   20.91400   51.54200
      C    C431    10.90100   20.32900   50.26500
      C    C432    11.74300   19.11900   49.90500
      O    O433    11.44000   18.40200   48.95200
      N    N434    12.80600   18.89000   50.66700
      C    C435    13.68500   17.75100   50.42500
      C    C436    13.16100   16.51200   51.14500
      O    O437    12.72000   16.59000   52.29200
      C    C438    15.12900   18.04000   50.88700
      O    O439    15.66200   19.14000   50.14100
      C    C440    16.01700   16.82300   50.68600
      N    N441    13.19500   15.37300   50.46000
      C    C442    12.80800   14.11000   51.05700
      C    C443    13.91000   13.58400   51.95600
      O    O444    14.99500   13.23900   51.48800
      N    N445    13.63600   13.53400   53.25400
      C    C446    14.61100   13.04400   54.21900
      C    C447    14.15100   11.70200   54.78700
      O    O448    12.95600   11.41300   54.82500
      C    C449    14.83700   14.07000   55.35900
      C    C450    13.63700   14.11900   56.26900
      C    C451    16.09600   13.73500   56.15900
      N    N452    15.10300   10.87500   55.20900
      C    C453    14.78500    9.56000   55.75300
      C    C454    14.30600    9.65700   57.19200
      O    O455    14.64400   10.60200   57.90600
      C    C456    15.99900    8.63900   55.66000
      C    C457    16.46800    8.46200   54.23600
      O    O458    15.72200    8.74200   53.29700
      N    N459    17.69600    7.98600   54.06100
      N    N460    13.52300    8.66900   57.61200
      C    C461    12.92200    8.67200   58.94000
      C    C462    13.97300    8.71100   60.04300
      O    O463    13.75500    9.32900   61.09000
      C    C464    12.01700    7.44800   59.11600
      C    C465    10.75600    7.72800   59.91200
      C    C466     9.66700    6.69700   59.65500
      N    N467     9.72200    5.58800   60.60600
      C    C468     9.25900    5.64400   61.85200
      N    N469     9.34900    4.58300   62.64400
      N    N470     8.71400    6.76000   62.31300
      N    N471    15.11100    8.06400   59.79800
      C    C472    16.20800    8.07500   60.75700
      C    C473    17.42800    8.80700   60.21200
      O    O474    18.53300    8.66700   60.73700
      C    C475    16.58900    6.65100   61.15900
      C    C476    16.97700    5.79400   59.95500
      O    O477    16.07400    5.23300   59.30000
      O    O478    18.18200    5.70000   59.63600
      N    N479    17.20300    9.65500   59.21300
      C    C480    18.26900   10.46900   58.65900
      C    C481    18.67900   11.58000   59.60800
      O    O482    17.93300   11.93200   60.51800
      N    N483    19.86900   12.13100   59.39700
      C    C484    20.38300   13.19700   60.25200
      C    C485    19.83200   14.56100   59.84500
      O    O486    19.88700   14.93700   58.67300
      C    C487    21.92200   13.25000   60.22000
      C    C488    22.51000   11.95000   60.77000
      C    C489    22.43500   14.44200   61.01000
      C    C490    24.02400   11.88100   60.68600
      N    N491    19.29000   15.29100   60.81500
      C    C492    18.83700   16.65600   60.57500
      C    C493    19.71300   17.64400   61.34100
      O    O494    19.99200   17.45300   62.52600
      C    C495    17.35900   16.84400   60.97200
      C    C496    16.45600   16.06200   60.01700
      C    C497    16.97900   18.32200   60.96100
      C    C498    14.98300   16.14000   60.36400
      N    N499    20.15700   18.69000   60.65100
      C    C500    21.01200   19.70300   61.25600
      C    C501    20.25400   21.01000   61.45400
      O    O502    19.57000   21.47900   60.54600
      C    C503    22.26200   19.97000   60.39400
      O    O504    22.93200   18.73200   60.12300
      C    C505    23.21600   20.91600   61.10800
      N    N506    20.36900   21.59300   62.64400
      C    C507    19.75900   22.88900   62.91200
      C    C508    20.77200   23.88500   63.46000
      O    O509    21.60000   23.54700   64.30600
      C    C510    18.59500   22.75400   63.89500
      C    C511    17.38900   21.92100   63.46600
      C    C512    16.32400   21.97500   64.54100
      C    C513    16.83500   22.41000   62.14000
      N    N514    20.70200   25.11400   62.96400
      C    C515    21.48500   26.20800   63.52300
      C    C516    20.53600   27.27900   64.03700
      O    O517    19.71200   27.80700   63.28600
      C    C518    22.44300   26.78900   62.48300
      C    C519    23.40800   25.77000   61.89200
      C    C520    24.43000   26.45300   61.00000
      N    N521    25.27000   27.37400   61.76100
      C    C522    26.02800   28.32000   61.21800
      N    N523    26.05300   28.48000   59.90100
      N    N524    26.75900   29.10900   61.99500
      N    N525    20.64800   27.59000   65.32200
      C    C526    19.73600   28.52900   65.96000
      C    C527    20.32800   29.92500   66.07200
      O    O528    21.54500   30.09700   66.06000
      C    C529    19.34400   28.02800   67.35000
      C    C530    18.55400   26.75500   67.33200
      C    C531    17.17700   26.78300   67.20700
      C    C532    19.18900   25.52900   67.43400
      C    C533    16.44800   25.61300   67.18600
      C    C534    18.46200   24.35500   67.41200
      C    C535    17.09100   24.39900   67.28600
      N    N536    19.45300   30.91800   66.18500
      C    C537    19.87800   32.28400   66.40500
      C    C538    20.57600   32.41800   67.74100
      O    O539    20.06400   31.97500   68.77100
      N    N540    21.75600   33.02600   67.71400
      C    C541    22.56500   33.22600   68.90900
      C    C542    21.81300   34.01800   69.97600
      O    O543    21.87700   33.71200   71.16600
      C    C544    23.86100   33.94300   68.53600
      C    C545    24.81700   34.17100   69.68300
      C    C546    26.04400   34.94900   69.25100
      O    O547    26.84100   34.47400   68.44300
      N    N548    26.19400   36.15900   69.78000
      O    O549    21.11300   34.98000   69.66500
