# CIF file generated by openbabel 2.3.2, see http://openbabel.sf.net
data_I
_chemical_name_common '../proteins/pdb/5UKV.pdb'
_cell_length_a 23.215
_cell_length_b 74.593
_cell_length_c 45.467
_cell_angle_alpha 90
_cell_angle_beta 97.31
_cell_angle_gamma 90
_space_group_name_H-M_alt 'P 1 21 1'
_space_group_name_Hall 'P 2yb'
loop_
    _symmetry_equiv_pos_as_xyz
    'x,y,z'
    '-x,1/2+y,-z'
loop_
    _atom_site_type_symbol
    _atom_site_label
    _atom_site_Cartn_x
    _atom_site_Cartn_y
    _atom_site_Cartn_z
      N    N1    -9.37900  -19.80300  -29.14900
      C    C2    -9.23300  -20.97200  -28.30300
      C    C3    -9.16700  -20.61700  -26.81200
      O    O4    -9.42100  -19.48100  -26.36600
      N    N5    -8.86100  -21.63200  -26.05800
      C    C6    -8.72900  -21.49700  -24.59900
      C    C7    -7.73400  -20.49200  -24.18400
      O    O8    -8.05300  -19.69800  -23.29200
      C    C9    -8.48900  -22.84500  -23.89400
      C    C10    -9.66100  -23.79200  -23.95400
      N    N11    -9.53500  -25.15000  -23.66400
      C    C12   -10.94700  -23.60600  -24.34000
      C    C13   -10.71400  -25.73900  -23.81400
      N    N14   -11.58200  -24.83900  -24.25500
      N    N15    -6.59000  -20.43600  -24.86500
      C    C16    -5.52900  -19.50700  -24.48400
      C    C17    -5.96400  -18.08300  -24.68800
      O    O18    -5.78300  -17.22500  -23.81300
      C    C19    -4.15300  -19.76200  -25.10600
      C    C20    -3.66300  -21.18000  -24.68500
     Se   Se21    -3.77400  -21.66900  -22.72800
      C    C22    -4.67800  -23.44600  -22.61900
      N    N23    -6.58800  -17.81400  -25.83600
      C    C24    -7.04500  -16.52000  -26.11800
      C    C25    -8.13400  -16.05700  -25.11500
      O    O26    -8.15700  -14.91000  -24.63100
      C    C27    -7.54800  -16.41600  -27.56900
      N    N28    -9.02300  -16.95800  -24.80600
      C    C29   -10.11200  -16.62400  -23.97100
      C    C30    -9.54500  -16.25000  -22.54800
      O    O31   -10.00800  -15.28800  -21.97800
      C    C32   -11.04700  -17.81000  -23.85500
      C    C33   -12.44600  -17.38300  -23.49900
      C    C34   -13.25000  -18.43000  -22.75200
      O    O35   -14.05200  -18.03100  -21.83200
      O    O36   -13.09900  -19.64800  -23.08800
      N    N37    -8.61900  -17.01600  -22.00800
      C    C38    -8.03900  -16.75800  -20.66100
      C    C39    -7.24500  -15.46800  -20.68200
      O    O40    -7.20500  -14.70900  -19.70400
      C    C41    -7.09600  -17.87800  -20.22500
      C    C42    -7.84400  -19.19100  -20.00900
      C    C43    -6.86600  -20.32600  -19.70100
      C    C44    -7.51600  -21.45600  -18.96700
      N    N45    -6.49100  -22.09800  -18.08800
      N    N46    -6.50800  -15.28700  -21.76400
      C    C47    -5.75700  -14.10500  -21.93700
      C    C48    -6.61900  -12.81400  -22.00500
      O    O49    -6.22000  -11.79300  -21.47100
      C    C50    -4.94700  -14.21600  -23.19100
      N    N51    -7.73400  -12.86000  -22.75400
      C    C52    -8.64000  -11.76500  -22.84200
      C    C53    -9.28800  -11.49300  -21.54100
      O    O54    -9.52600  -10.35700  -21.26000
      C    C55    -9.73900  -11.93600  -23.89200
      C    C56    -9.31100  -11.48300  -25.24700
      C    C57   -10.48600  -11.19600  -26.19700
      N    N58   -10.89100  -12.45500  -26.85400
      C    C59   -11.96800  -13.21500  -26.58000
      N    N60   -12.88000  -12.87300  -25.65800
      N    N61   -12.12800  -14.33900  -27.25100
      N    N62    -9.67300  -12.53400  -20.81500
      C    C63   -10.22600  -12.38600  -19.50600
      C    C64    -9.21900  -11.68700  -18.57400
      O    O65    -9.57700  -10.78000  -17.87500
      C    C66   -10.59300  -13.67500  -18.93000
      C    C67   -11.26100  -13.51800  -17.53700
      O    O68   -12.40200  -13.05000  -17.47300
      O    O69   -10.65400  -13.81000  -16.49700
      N    N70    -7.96600  -12.06700  -18.64500
      C    C71    -6.98300  -11.43300  -17.81600
      C    C72    -6.78200   -9.94800  -18.20600
      O    O73    -6.77400   -9.01000  -17.34600
      C    C74    -5.72200  -12.26700  -17.89300
      O    O75    -4.75100  -11.66300  -17.10100
      N    N76    -6.73200   -9.68900  -19.51200
      C    C77    -6.66400   -8.32800  -20.00700
      C    C78    -7.87900   -7.42200  -19.59800
      O    O79    -7.66900   -6.31100  -19.15600
      C    C80    -6.47200   -8.32400  -21.49500
      C    C81    -6.49900   -6.91700  -22.07100
      C    C82    -6.76900   -6.81400  -23.54200
      O    O83    -6.61000   -5.66200  -23.99200
      O    O84    -7.03600   -7.85900  -24.22600
      N    N85    -9.10900   -7.90300  -19.74600
      C    C86   -10.22500   -7.19400  -19.33500
      C    C87   -10.27400   -6.95800  -17.81700
      O    O88   -10.68600   -5.92500  -17.40400
      C    C89   -11.50600   -7.86800  -19.76100
      C    C90   -11.74300   -7.73600  -21.26900
      O    O91   -10.94500   -7.05400  -22.00600
      O    O92   -12.68200   -8.40600  -21.71200
      N    N93    -9.87700   -7.89400  -16.98500
      C    C94    -9.75200   -7.57900  -15.54300
      C    C95    -8.73600   -6.47900  -15.28500
      O    O96    -8.97100   -5.65000  -14.40200
      C    C97    -9.36100   -8.82800  -14.77200
      C    C98   -10.42600   -9.91600  -14.72600
      C    C99   -10.11500  -10.90500  -13.62700
      N    N100   -10.18600  -10.21900  -12.30900
      C    C101   -11.31100  -10.01200  -11.59300
      N    N102   -12.53700  -10.45000  -12.04900
      N    N103   -11.22700   -9.38600  -10.41300
      N    N104    -7.56900   -6.50200  -15.96000
      C    C105    -6.56600   -5.41400  -15.83900
      C    C106    -7.20600   -4.06500  -16.23300
      O    O107    -7.10900   -3.06300  -15.55400
      C    C108    -5.36100   -5.70400  -16.71400
      C    C109    -4.38200   -4.58600  -16.77300
     Se   Se110    -3.44600   -4.36100  -14.98700
      C    C111    -2.43200   -6.01600  -14.83000
      N    N112    -7.93600   -4.01900  -17.37500
      C    C113    -8.63300   -2.80900  -17.71700
      C    C114    -9.64500   -2.32000  -16.67100
      O    O115    -9.66200   -1.17400  -16.34800
      C    C116    -9.50000   -2.95000  -19.03600
      C    C117    -8.66800   -3.14900  -20.28100
      C    C118    -9.71300   -3.31200  -21.47000
      N    N119    -8.91200   -3.68300  -22.60800
      C    C120    -8.40100   -2.83200  -23.47400
      N    N121    -8.65500   -1.54800  -23.40300
      N    N122    -7.62100   -3.26700  -24.43600
      N    N123   -10.46700   -3.22600  -16.14900
      C    C124   -11.40400   -2.95600  -15.06400
      C    C125   -10.69100   -2.43600  -13.82000
      O    O126   -11.16700   -1.45000  -13.23700
      C    C127   -12.27200   -4.16000  -14.73600
      C    C128   -13.32000   -4.46300  -15.82200
      C    C129   -13.85500   -5.90800  -15.87100
      O    O130   -13.32200   -6.81000  -15.16400
      N    N131   -14.90400   -6.15900  -16.76400
      N    N132    -9.54900   -3.03900  -13.50000
      C    C133    -8.74500   -2.65500  -12.32100
      C    C134    -8.24200   -1.19500  -12.53600
      O    O135    -8.36600   -0.31000  -11.65600
      C    C136    -7.60800   -3.61100  -12.12300
      C    C137    -6.65800   -3.18300  -11.11000
      C    C138    -6.98100   -3.29300   -9.73800
      C    C139    -5.46400   -2.60700  -11.46700
      C    C140    -6.08600   -2.83800   -8.77800
      C    C141    -4.55200   -2.16000  -10.48700
      C    C142    -4.89000   -2.25900   -9.14300
      N    N143    -7.64700   -0.95200  -13.69600
      C    C144    -7.16900    0.35900  -14.04400
      C    C145    -8.30600    1.44100  -14.01200
      O    O146    -8.10000    2.54600  -13.41100
      C    C147    -6.35500    0.33800  -15.32400
      C    C148    -5.05300   -0.26000  -15.05500
      C    C149    -6.16400    1.76400  -15.82300
      C    C150    -4.27300   -0.70600  -16.23300
      N    N151    -9.49700    1.14500  -14.52500
      C    C152   -10.58200    2.05500  -14.38200
      C    C153   -10.97700    2.35800  -12.90700
      O    O154   -11.13900    3.49500  -12.54700
      C    C155   -11.74000    1.50800  -15.22200
      O    O156   -11.24200    1.31300  -16.58000
      C    C157   -12.91300    2.35900  -15.16800
      N    N158   -11.14400    1.30500  -12.09900
      C    C159   -11.44700    1.49100  -10.67100
      C    C160   -10.43200    2.24400   -9.96000
      O    O161   -10.70100    3.23600   -9.29300
      C    C162   -11.77000    0.20300   -9.91300
      C    C163   -13.01100   -0.51300  -10.48800
      O    O164   -13.85000    0.11900  -11.22300
      O    O165   -13.16500   -1.77400  -10.27800
      N    N166    -9.21300    1.86100  -10.11600
      C    C167    -8.14100    2.56900   -9.43100
      C    C168    -8.00600    4.03400   -9.80100
      O    O169    -7.80700    4.87000   -8.87900
      C    C170    -6.89800    1.82200   -9.64800
      N    N171    -8.22000    4.37200  -11.06400
      C    C172    -8.15500    5.68100  -11.47200
      C    C173    -9.26700    6.60400  -11.04100
      O    O174    -8.95700    7.72800  -10.64700
      C    C175    -8.04300    5.76200  -12.95400
      O    O176    -6.95200    4.94800  -13.38000
      N    N177   -10.48700    6.08400  -10.99300
      C    C178   -11.60400    6.77300  -10.38200
      C    C179   -11.41600    6.99200   -8.91400
      O    O180   -11.75700    8.07100   -8.42500
      C    C181   -12.93700    6.04200  -10.65900
      C    C182   -13.47200    6.25500  -12.05600
      N    N183   -13.80500    7.48600  -12.55100
      C    C184   -13.82500    5.36400  -13.01200
      C    C185   -14.31200    7.34300  -13.76100
      N    N186   -14.33400    6.06500  -14.06300
      N    N187   -10.76600    6.06800   -8.21700
      C    C188   -10.50700    6.27400   -6.81600
      C    C189    -9.50500    7.40700   -6.53300
      O    O190    -9.62500    8.17500   -5.54500
      C    C191    -9.93700    4.94800   -6.21600
      C    C192   -10.97500    3.82500   -5.91400
      C    C193   -10.33500    2.48200   -5.60600
      O    O194    -9.06200    2.40400   -5.49400
      O    O195   -11.08800    1.45400   -5.63500
      N    N196    -8.54700    7.56800   -7.44100
      C    C197    -7.62100    8.71600   -7.38300
      C    C198    -8.27300    9.99900   -7.72700
      O    O199    -7.93400   11.03900   -7.20300
      C    C200    -6.40400    8.47700   -8.33400
      C    C201    -5.50100    7.33200   -7.97100
      C    C202    -4.59900    7.02000   -9.17100
      C    C203    -4.73600    7.73500   -6.67400
      N    N204    -9.20100    9.94400   -8.64100
      C    C205    -9.85900   11.11800   -9.10000
      C    C206   -10.61800   11.88200   -8.06200
      O    O207   -10.66400   13.05700   -8.10900
      C    C208   -10.80100   10.76900  -10.21200
      C    C209   -10.62200   11.70800  -11.33800
      C    C210   -11.88900   11.84700  -12.09900
      N    N211   -11.74300   11.35900  -13.43200
      C    C212   -12.60200   11.68000  -14.38100
      N    N213   -12.46900   11.21900  -15.61300
      N    N214   -13.61900   12.46000  -14.08000
      N    N215   -11.23300   11.17700   -7.14600
      C    C216   -12.00900   11.79200   -6.16200
      C    C217   -11.21100   12.70500   -5.20200
      O    O218   -11.51500   13.85400   -5.12000
      C    C219   -12.79100   10.72600   -5.42000
      O    O220   -13.50900    9.94600   -6.38900
      C    C221   -13.70500   11.32900   -4.40500
      N    N222   -10.25100   12.19000   -4.44800
      C    C223    -9.41700   13.16200   -3.71900
      C    C224    -8.74200   14.29300   -4.59400
      O    O225    -8.62900   15.45800   -4.16400
      C    C226    -8.43000   12.26500   -2.99400
      C    C227    -8.33700   11.03200   -3.80200
      C    C228    -9.68100   10.84700   -4.37800
      N    N229    -8.35100   14.01900   -5.82200
      C    C230    -7.82700   15.05900   -6.66000
      C    C231    -8.73200   16.23500   -6.93700
      O    O232    -8.26500   17.39000   -7.12300
      C    C233    -7.49900   14.54500   -8.09900
      C    C234    -6.13700   14.54400   -8.58600
      C    C235    -5.94400   13.92000   -9.99300
      C    C236    -5.45500   15.90100   -8.34200
      N    N237    -9.99200   15.92500   -7.24700
      C    C238   -11.02600   16.97100   -7.50000
      C    C239   -11.24400   17.83700   -6.27700
      O    O240   -11.36200   19.02600   -6.42100
      C    C241   -12.35100   16.30500   -8.01000
      O    O242   -12.09400   15.75100   -9.30700
      C    C243   -13.38400   17.39600   -8.27600
      N    N244   -11.21500   17.28800   -5.06700
      C    C245   -11.05200   18.07600   -3.86600
      C    C246    -9.84800   19.08100   -3.76900
      O    O247   -10.04700   20.23600   -3.48300
      C    C248   -11.09600   17.21500   -2.63600
      O    O249   -12.39900   16.58800   -2.57500
      C    C250   -11.01400   18.02200   -1.36500
      N    N251    -8.61200   18.58300   -3.94100
      C    C252    -7.47300   19.40600   -3.95600
      C    C253    -7.65200   20.53400   -4.97800
      O    O254    -7.44000   21.73700   -4.68200
      C    C255    -6.23200   18.56200   -4.22600
      C    C256    -5.93000   17.57300   -3.11200
      C    C257    -5.06500   19.49500   -4.44800
      C    C258    -5.18200   16.29000   -3.47000
      N    N259    -8.06400   20.19200   -6.18300
      C    C260    -8.26600   21.19300   -7.20800
      C    C261    -9.34800   22.20900   -6.88900
      O    O262    -9.14000   23.35300   -7.04400
      C    C263    -8.58800   20.55300   -8.53000
      C    C264    -7.41000   19.95100   -9.23200
      C    C265    -7.80900   19.35200  -10.54800
      N    N266    -7.58100   20.30100  -11.60800
      C    C267    -7.53500   19.94800  -12.87700
      N    N268    -7.73300   18.68000  -13.17800
      N    N269    -7.29100   20.84200  -13.81900
      N    N270   -10.47100   21.74200   -6.39600
      C    C271   -11.52700   22.57300   -6.05700
      C    C272   -11.15800   23.54800   -4.98400
      O    O273   -11.54700   24.68600   -5.03300
      N    N274   -10.44700   23.08300   -3.98600
      C    C275   -10.02200   23.92800   -2.87100
      C    C276    -9.02400   24.98700   -3.31400
      O    O277    -9.07000   26.14200   -2.88500
      C    C278    -9.53700   23.11300   -1.67000
      C    C279   -10.60400   22.56500   -0.80500
      C    C280   -11.93500   22.45300   -1.20500
      C    C281   -10.34200   22.26300    0.53500
      C    C282   -12.93200   21.94300   -0.31600
      C    C283   -11.37600   21.76400    1.40800
      C    C284   -12.66400   21.63100    0.97300
      N    N285    -8.11500   24.61100   -4.20400
      C    C286    -7.19500   25.61300   -4.75900
      C    C287    -7.85700   26.63200   -5.61600
      O    O288    -7.55500   27.81000   -5.53700
      C    C289    -6.04800   24.93000   -5.51400
      N    N290    -8.88300   26.25300   -6.36500
      C    C291    -9.65000   27.25300   -7.11700
      C    C292   -10.38500   28.19100   -6.21200
      O    O293   -10.46800   29.35900   -6.51800
      C    C294   -10.67500   26.55500   -8.05400
      C    C295   -11.63300   27.44800   -8.81600
      C    C296   -10.95800   28.28800   -9.87900
      O    O297    -9.77800   28.02500  -10.27800
      O    O298   -11.64800   29.23700  -10.33100
      N    N299   -10.85600   27.71700   -5.07900
      C    C300   -11.56100   28.58500   -4.09600
      C    C301   -10.66900   29.70100   -3.64800
      O    O302   -11.03500   30.89400   -3.65400
      C    C303   -12.12100   27.79600   -2.93600
      C    C304   -13.34200   28.24100   -2.20800
      C    C305   -14.52500   28.29500   -3.16100
      C    C306   -13.76200   27.23900   -1.14100
      N    N307    -9.44700   29.33000   -3.34900
      C    C308    -8.46000   30.29200   -3.06200
      C    C309    -8.17700   31.27300   -4.21400
      O    O310    -8.10900   32.46600   -4.02400
      C    C311    -7.15400   29.56500   -2.74700
      C    C312    -6.04500   30.55100   -2.35700
      C    C313    -5.24100   31.16800   -3.33400
      C    C314    -5.83400   30.88100   -0.96400
      C    C315    -4.30100   32.09700   -3.03000
      C    C316    -4.83400   31.80600   -0.62600
      C    C317    -4.05400   32.40700   -1.64900
      O    O318    -3.05300   33.35000   -1.32500
      N    N319    -7.97800   30.79400   -5.41000
      C    C320    -7.74400   31.71400   -6.48200
      C    C321    -8.92000   32.66600   -6.70900
      O    O322    -8.71600   33.79200   -7.07000
      C    C323    -7.54200   30.90900   -7.76400
      C    C324    -7.50200   31.71100   -9.06200
      C    C325    -7.24100   30.69800  -10.22200
      N    N326    -5.80100   30.46600  -10.32600
      C    C327    -4.92900   31.36000  -10.81500
      N    N328    -5.34600   32.55500  -11.28400
      N    N329    -3.62500   31.06400  -10.87900
      N    N330   -10.15400   32.22900   -6.51300
      C    C331   -11.32100   33.12200   -6.63400
      C    C332   -11.42400   34.19000   -5.51600
      O    O333   -12.32700   34.97300   -5.53900
      C    C334   -12.60300   32.27700   -6.61900
      C    C335   -12.70300   31.35800   -7.83000
      C    C336   -12.80900   32.10800   -9.12300
      O    O337   -13.22100   33.26800   -9.14700
      N    N338   -12.49700   31.45600  -10.19200
      N    N339   -10.51400   34.22400   -4.54400
      C    C340   -10.58100   35.17900   -3.42200
      C    C341   -11.53500   34.72300   -2.30000
      O    O342   -11.79300   35.48500   -1.36300
      N    N343   -12.05800   33.50000   -2.40100
      C    C344   -13.07300   33.03700   -1.45800
      C    C345   -12.51200   32.41400   -0.15300
      O    O346   -13.31900   32.03200    0.67900
      C    C347   -14.07800   32.11400   -2.14400
      N    N348   -11.18500   32.33100    0.04800
      C    C349   -10.64800   31.57400    1.23700
      C    C350   -10.38200   32.53900    2.35300
      O    O351    -9.67900   33.53200    2.16300
      C    C352    -9.42400   30.72800    0.97600
      N    N353   -11.07800   32.36700    3.46700
      C    C354   -10.83000   33.21700    4.66800
      C    C355    -9.73600   32.44400    5.48100
      O    O356    -8.67000   32.95500    5.74200
      C    C357   -12.06800   33.44500    5.60000
      C    C358   -13.44600   33.75100    5.04400
      C    C359   -14.60600   33.81600    6.08400
      N    N360   -15.41700   34.92300    5.67500
      C    C361   -15.19500   36.16100    6.07500
      N    N362   -15.90400   37.14200    5.55800
      N    N363   -14.26300   36.43000    7.01100
      N    N364    -9.96900   31.18400    5.83400
      C    C365    -9.01600   30.38100    6.61300
      C    C366    -8.26300   29.41600    5.71100
      O    O367    -8.60400   28.26000    5.61700
      C    C368    -9.68600   29.68000    7.75300
      C    C369    -8.73300   28.83500    8.60000
      O    O370    -7.53700   28.74500    8.30500
      O    O371    -9.26300   28.08300    9.46500
      N    N372    -7.16100   29.88400    5.17000
      C    C373    -6.32300   29.09300    4.33000
      C    C374    -5.73700   27.91000    5.06800
      O    O375    -5.39400   26.94200    4.46100
      C    C376    -5.22300   29.90000    3.66800
      C    C377    -4.63400   29.10500    2.55100
      C    C378    -5.79700   31.13000    3.05800
      N    N379    -5.52900   28.03300    6.36100
      C    C380    -5.01500   26.88700    7.12900
      C    C381    -5.89800   25.65800    7.10700
      O    O382    -5.47800   24.53300    6.94400
      N    N383    -7.19100   25.91000    7.19700
      C    C384    -8.17900   24.87200    7.05300
      C    C385    -8.22100   24.31700    5.64600
      O    O386    -8.27000   23.13000    5.51500
      C    C387    -9.57500   25.30400    7.46300
      C    C388   -10.38400   24.03400    7.49700
     Se   Se389   -12.19600   24.37400    8.11900
      C    C390   -11.63200   24.38000    9.99400
      N    N391    -8.15600   25.17100    4.63500
      C    C392    -8.16400   24.80500    3.26500
      C    C393    -6.97100   23.90900    2.99700
      O    O394    -7.08200   22.88800    2.44600
      C    C395    -8.02200   26.08600    2.46600
      C    C396    -8.33800   26.11300    1.00300
      C    C397    -9.79600   25.94700    0.75300
      C    C398    -7.82000   27.28200    0.20900
      N    N399    -5.83200   24.31900    3.47900
      C    C400    -4.54600   23.59000    3.33200
      C    C401    -4.51100   22.23200    4.03600
      O    O402    -4.00100   21.21500    3.45500
      C    C403    -3.35000   24.45800    3.81400
      C    C404    -1.95700   23.84400    3.54800
      C    C405    -1.77200   23.59000    2.03200
      C    C406    -0.94600   24.75900    4.02200
      N    N407    -5.15200   22.18600    5.18300
      C    C408    -5.28100   20.98000    5.93100
      C    C409    -6.05900   19.91100    5.14500
      O    O410    -5.66800   18.80600    5.04800
      C    C411    -6.06800   21.33100    7.16900
      O    O412    -5.90900   20.39200    8.13100
      N    N413    -7.15400   20.31200    4.53100
      C    C414    -7.92300   19.38800    3.74100
      C    C415    -7.10000   18.93900    2.55100
      O    O416    -7.12200   17.80900    2.21200
      C    C417    -9.24100   19.97100    3.28400
      C    C418   -10.00800   19.06700    2.32100
      C    C419   -10.24500   17.65200    2.86200
      N    N420   -10.90500   17.66900    4.14700
      C    C421   -11.23500   16.61000    4.85600
      N    N422   -10.96700   15.40600    4.41600
      N    N423   -11.86200   16.76400    6.00600
      N    N424    -6.41100   19.86700    1.92300
      C    C425    -5.57500   19.54900    0.82200
      C    C426    -4.51000   18.55400    1.19600
      O    O427    -4.30800   17.57300    0.49200
      C    C428    -4.96100   20.78200    0.14300
      C    C429    -6.04200   21.53600   -0.63100
      C    C430    -3.73800   20.33400   -0.70100
      C    C431    -5.64100   22.96600   -1.06200
      N    N432    -3.87000   18.73700    2.33200
      C    C433    -2.85700   17.83800    2.81500
      C    C434    -3.41000   16.44900    3.09700
      O    O435    -2.81600   15.47800    2.80000
      C    C436    -2.20800   18.40300    4.07100
      C    C437    -1.26300   19.53700    3.80200
      C    C438    -0.64400   20.15300    5.06400
      O    O439    -1.23600   21.04400    5.65500
      O    O440     0.44900   19.74200    5.44900
      N    N441    -4.58300   16.40600    3.66800
      C    C442    -5.23400   15.19300    4.00400
      C    C443    -5.54100   14.37800    2.74600
      O    O444    -5.21600   13.23400    2.64800
      C    C445    -6.49900   15.57200    4.74700
      O    O446    -7.27000   14.47500    5.01600
      N    N447    -6.06800   15.03400    1.74900
      C    C448    -6.39500   14.33900    0.46600
      C    C449    -5.11100   13.89100   -0.23700
      O    O450    -5.11500   12.81200   -0.77900
      C    C451    -7.31300   15.16800   -0.39600
      C    C452    -8.69700   15.46300    0.22600
      C    C453    -9.39200   14.25500    0.79000
      O    O454    -9.32900   13.17900    0.18000
      O    O455    -9.92100   14.35800    1.90800
      N    N456    -4.01200   14.62400   -0.10600
      C    C457    -2.80000   14.28800   -0.78100
      C    C458    -2.24000   13.02600   -0.10900
      O    O459    -1.67400   12.16300   -0.78300
      C    C460    -1.79000   15.42200   -0.78400
      N    N461    -2.30400   12.98400    1.21400
      C    C462    -1.83100   11.82000    1.94100
      C    C463    -2.69100   10.60400    1.61600
      O    O464    -2.17500    9.55700    1.37600
      C    C465    -1.66600   12.06100    3.43700
      O    O466    -2.88500   12.18600    4.02800
      N    N467    -3.99900   10.77800    1.56100
      C    C468    -4.86600    9.71000    1.13100
      C    C469    -4.43500    9.20700   -0.27800
      O    O470    -4.43900    8.02100   -0.52400
      C    C471    -6.37700   10.14700    1.07200
      C    C472    -7.41800    9.11200    0.65200
      C    C473    -8.82200    9.71300    0.32800
      N    N474    -9.28300   10.58100    1.42700
      C    C475    -9.68800   10.14000    2.60300
      N    N476    -9.74000    8.85500    2.83800
      N    N477   -10.10100   10.98000    3.54500
      N    N478    -4.21400   10.07800   -1.24300
      C    C479    -3.78700    9.59700   -2.52000
      C    C480    -2.45100    8.97900   -2.50100
      O    O481    -2.12600    8.08400   -3.28200
      C    C482    -3.57500   10.80300   -3.53100
      C    C483    -4.85300   11.24600   -4.07000
     Se   Se484    -4.56400   12.83900   -5.29400
      C    C485    -4.01300   11.76900   -6.76400
      N    N486    -1.62000    9.43300   -1.56300
      C    C487    -0.34100    8.84200   -1.45400
      C    C488    -0.37700    7.38200   -1.12300
      O    O489     0.39600    6.54700   -1.64100
      N    N490    -1.24900    7.05200   -0.21600
      C    C491    -1.46600    5.69400    0.10800
      C    C492    -2.07600    4.90300   -0.97900
      O    O493    -1.72200    3.76200   -1.15500
      C    C494    -2.36000    5.62900    1.31000
      C    C495    -1.83800    6.32000    2.58500
      C    C496    -2.99700    6.26100    3.57500
      C    C497    -0.64300    5.56600    3.07000
      N    N498    -3.03700    5.45200   -1.71400
      C    C499    -3.62400    4.73500   -2.84000
      C    C500    -2.48200    4.44700   -3.83300
      O    O501    -2.41300    3.39900   -4.52300
      C    C502    -4.74400    5.59100   -3.51900
      C    C503    -5.99900    5.70000   -2.61200
      C    C504    -6.92600    6.88200   -2.95900
      C    C505    -6.77600    4.35700   -2.45100
      N    N506    -1.66900    5.45800   -4.11500
      C    C507    -0.66500    5.28000   -5.13200
      C    C508     0.34200    4.24100   -4.70600
      O    O509     0.87000    3.43200   -5.53200
      C    C510     0.02600    6.65400   -5.41400
      C    C511     1.33600    6.46900   -6.19200
      C    C512    -0.88300    7.49800   -6.22300
      N    N513     0.75300    4.28100   -3.43800
      C    C514     1.71100    3.22000   -2.98400
      C    C515     1.14200    1.81100   -3.13000
      O    O516     1.85200    0.87200   -3.58900
      C    C517     2.21500    3.44700   -1.55400
      C    C518     3.17500    4.64900   -1.43500
      O    O519     3.87600    5.05500   -2.43600
      O    O520     3.19600    5.21500   -0.28100
      N    N521    -0.14000    1.65600   -2.86400
      C    C522    -0.78000    0.39900   -3.03100
      C    C523    -0.91100    0.01200   -4.48100
      O    O524    -0.68800   -1.16100   -4.83100
      C    C525    -2.14200    0.44400   -2.39100
      C    C526    -2.64200   -0.95700   -2.04100
      O    O527    -1.84200   -1.74600   -1.41000
      O    O528    -3.86600   -1.22500   -2.24300
      N    N529    -1.20200    0.97300   -5.36800
      C    C530    -1.19400    0.62100   -6.79700
      C    C531     0.14600    0.11800   -7.31200
      O    O532     0.21200   -0.84300   -8.09000
      C    C533    -1.57400    1.80600   -7.61300
      C    C534    -3.02000    2.12600   -7.55800
      C    C535    -3.23100    3.31300   -8.46800
      C    C536    -3.88300    0.91400   -7.97700
      N    N537     1.20200    0.75600   -6.86100
      C    C538     2.56600    0.39500   -7.20100
      C    C539     2.82400   -1.04100   -6.80600
      O    O540     3.38800   -1.80600   -7.62900
      C    C541     3.56300    1.38300   -6.56500
      C    C542     3.99400    2.69700   -7.26400
      C    C543     5.07000    3.39900   -6.43700
      C    C544     4.50800    2.33400   -8.68300
      N    N545     2.36200   -1.44800   -5.58100
      C    C546     2.54000   -2.84100   -5.15800
      C    C547     1.67100   -3.80100   -5.91900
      O    O548     2.12900   -4.88300   -6.31300
      C    C549     2.27200   -2.94700   -3.63900
      C    C550     3.28700   -2.18400   -2.83000
      C    C551     2.84600   -2.06600   -1.38500
      C    C552     4.63400   -2.91100   -2.88200
      N    N553     0.42600   -3.41000   -6.19300
      C    C554    -0.47700   -4.30900   -6.94900
      C    C555    -0.06900   -4.51400   -8.35300
      O    O556    -0.33000   -5.57400   -8.92200
      C    C557    -1.90200   -3.79800   -6.94700
      C    C558    -2.61000   -3.74700   -5.60000
      C    C559    -3.78500   -2.74500   -5.42100
      C    C560    -3.06200   -5.11200   -5.24600
      N    N561     0.56500   -3.53900   -8.93800
      C    C562     0.98900   -3.70000  -10.36500
      C    C563     2.02900   -4.78900  -10.49400
      O    O564     2.22800   -5.31200  -11.53700
      C    C565     1.58200   -2.38200  -10.92200
      N    N566     2.69500   -5.14000   -9.38900
      C    C567     3.63000   -6.25300   -9.41700
      C    C568     2.96400   -7.61200   -9.27200
      O    O569     3.65500   -8.60300   -9.52500
      C    C570     4.69000   -6.08800   -8.29600
      C    C571     5.42500   -4.73600   -8.21200
      C    C572     6.26800   -4.58400   -9.40500
      C    C573     7.01100   -3.24100   -9.58300
      N    N574     7.98800   -3.46500  -10.75300
      N    N575     1.69700   -7.73200   -8.88400
      C    C576     1.10700   -9.02800   -8.62400
      C    C577     0.34000   -9.60000   -9.76200
      O    O578     0.16500  -10.84000   -9.93900
      C    C579     0.03900   -8.83400   -7.52800
      C    C580     0.55600   -8.26800   -6.26200
      C    C581    -0.46800   -8.55700   -5.18500
      C    C582     1.84600   -9.00000   -5.91100
      O    O583    -0.20000   -8.70800  -10.51400
