# CIF file generated by openbabel 2.3.2, see http://openbabel.sf.net
data_I
_chemical_name_common '../proteins/pdb/5UKY.pdb'
_cell_length_a 23.25
_cell_length_b 74.534
_cell_length_c 44.539
_cell_angle_alpha 90
_cell_angle_beta 96.64
_cell_angle_gamma 90
_space_group_name_H-M_alt 'P 1 21 1'
_space_group_name_Hall 'P 2yb'
loop_
    _symmetry_equiv_pos_as_xyz
    'x,y,z'
    '-x,1/2+y,-z'
loop_
    _atom_site_type_symbol
    _atom_site_label
    _atom_site_Cartn_x
    _atom_site_Cartn_y
    _atom_site_Cartn_z
      N    N1    -0.01600  -20.97700   -6.43800
      C    C2    -1.18500  -20.72300   -5.54300
      C    C3    -0.81200  -20.45000   -4.09300
      O    O4    -0.79400  -19.30300   -3.67800
      N    N5    -0.53900  -21.51000   -3.33300
      C    C6    -0.36800  -21.45700   -1.86600
      C    C7     0.70800  -20.49700   -1.39400
      O    O8     0.46100  -19.74400   -0.45300
      C    C9    -0.08600  -22.85300   -1.27100
      C    C10    -1.28700  -23.75400   -1.25600
      N    N11    -2.50800  -23.35200   -1.75200
      C    C12    -1.44500  -25.04800   -0.86000
      C    C13    -3.37300  -24.34400   -1.63900
      N    N14    -2.75600  -25.38800   -1.10600
      N    N15     1.87600  -20.51300   -2.04100
      C    C16     2.96400  -19.60700   -1.63500
      C    C17     2.61200  -18.15800   -1.95000
      O    O18     2.90700  -17.26500   -1.15700
      C    C19     4.32800  -20.00000   -2.23200
      C    C20     5.41900  -20.16300   -1.17500
      S    S21     5.14300  -21.63700   -0.15200
      C    C22     4.14200  -21.06800    1.23400
      N    N23     1.94100  -17.93700   -3.07200
      C    C24     1.55500  -16.59300   -3.48400
      C    C25     0.46800  -16.02600   -2.55500
      O    O26     0.50500  -14.85400   -2.20600
      C    C27     1.08900  -16.57900   -4.92100
      N    N28    -0.46700  -16.86900   -2.13000
      C    C29    -1.59500  -16.42700   -1.32800
      C    C30    -1.13200  -16.09700    0.10900
      O    O31    -1.53800  -15.08000    0.66300
      C    C32    -2.70900  -17.48600   -1.37300
      C    C33    -3.98500  -17.10800   -0.64400
      C    C34    -4.09800  -17.75900    0.71900
      O    O35    -5.13200  -17.53200    1.40700
      O    O36    -3.15500  -18.50200    1.09700
      N    N37    -0.26700  -16.93300    0.67500
      C    C38     0.38700  -16.67300    1.95600
      C    C39     1.32200  -15.45900    1.95100
      O    O40     1.38800  -14.71300    2.94400
      C    C41     1.20700  -17.89600    2.39600
      C    C42     1.91500  -17.68800    3.73200
      C    C43     1.89700  -18.91200    4.62700
      C    C44     2.07200  -18.52600    6.09500
      N    N45     1.77400  -19.68000    6.98500
      N    N46     2.07900  -15.30200    0.86700
      C    C47     2.89300  -14.12500    0.68500
      C    C48     2.01900  -12.86600    0.55700
      O    O49     2.41100  -11.81600    1.05800
      C    C50     3.78400  -14.27300   -0.54600
      N    N51     0.88600  -12.96300   -0.14600
      C    C52    -0.04900  -11.83600   -0.30700
      C    C53    -0.73400  -11.47300    1.02300
      O    O54    -0.95500  -10.30000    1.30000
      C    C55    -1.13900  -12.10000   -1.38700
      C    C56    -0.74400  -11.80800   -2.83300
      C    C57    -1.93300  -11.59100   -3.79400
      N    N58    -3.16200  -12.35700   -3.47500
      C    C59    -3.42700  -13.62600   -3.82900
      N    N60    -2.56100  -14.35300   -4.54300
      N    N61    -4.57900  -14.18800   -3.44800
      N    N62    -1.11700  -12.49800    1.79000
      C    C63    -1.64400  -12.31700    3.13600
      C    C64    -0.59500  -11.64700    4.02000
      O    O65    -0.89800  -10.71600    4.74400
      C    C66    -2.04300  -13.62200    3.81300
      C    C67    -2.74700  -13.36900    5.15000
      O    O68    -3.78900  -12.67700    5.14300
      O    O69    -2.24800  -13.80100    6.21200
      N    N70     0.63000  -12.12300    3.94300
      C    C71     1.67500  -11.51400    4.70800
      C    C72     1.90100  -10.06700    4.24400
      O    O73     1.95200   -9.14300    5.08000
      C    C74     2.92500  -12.38600    4.69400
      O    O75     3.91700  -11.78800    5.49300
      N    N76     1.93300   -9.82300    2.93500
      C    C77     2.09200   -8.45000    2.45700
      C    C78     0.92000   -7.51300    2.85800
      O    O79     1.17500   -6.36500    3.22900
      C    C80     2.32900   -8.41800    0.95600
      C    C81     2.48600   -7.00600    0.37800
      C    C82     2.13600   -6.89200   -1.08900
      O    O83     2.26700   -5.76400   -1.61000
      O    O84     1.76200   -7.90300   -1.72700
      N    N85    -0.32400   -8.00400    2.80900
      C    C86    -1.52300   -7.24400    3.23000
      C    C87    -1.56300   -6.89400    4.70900
      O    O88    -1.99200   -5.83300    5.07000
      C    C89    -2.81900   -8.02700    2.92100
      C    C90    -3.13200   -8.10100    1.43000
      O    O91    -2.61100   -7.29000    0.64900
      O    O92    -3.89500   -8.99400    1.03600
      N    N93    -1.11300   -7.80800    5.54700
      C    C94    -0.98400   -7.54400    6.94500
      C    C95     0.05700   -6.46000    7.14100
      O    O96    -0.16600   -5.56800    7.93400
      C    C97    -0.60500   -8.81500    7.73300
      C    C98    -1.73200   -9.82500    7.89000
      C    C99    -1.34400  -10.88000    8.93400
      N    N100    -1.30500  -10.27500   10.25600
      C    C101    -2.38700   -9.97100   10.98600
      N    N102    -3.61300  -10.28000   10.55300
      N    N103    -2.25100   -9.38500   12.17900
      N    N104     1.18400   -6.53000    6.43200
      C    C105     2.16600   -5.40700    6.48000
      C    C106     1.58100   -4.06900    6.02900
      O    O107     1.79400   -3.11100    6.71000
      C    C108     3.43400   -5.72600    5.70000
      C    C109     4.50800   -4.64700    5.69900
      S    S110     5.34400   -4.49100    7.30500
      C    C111     6.30800   -5.98300    7.24200
      N    N112     0.83700   -3.99500    4.90900
      C    C113     0.13500   -2.74700    4.54700
      C    C114    -0.75800   -2.22900    5.64200
      O    O115    -0.71500   -1.04500    5.94200
      C    C116    -0.76500   -2.93800    3.32200
      C    C117     0.02200   -3.04800    2.04600
      C    C118    -0.85700   -3.50500    0.90200
      N    N119    -0.00800   -3.76000   -0.24700
      C    C120     0.46800   -2.82800   -1.05100
      N    N121     0.16600   -1.54400   -0.85200
      N    N122     1.24800   -3.19000   -2.07100
      N    N123    -1.59800   -3.11600    6.20700
      C    C124    -2.58200   -2.69700    7.22000
      C    C125    -1.91100   -2.23800    8.51500
      O    O126    -2.29900   -1.26900    9.12500
      C    C127    -3.56800   -3.82800    7.48600
      C    C128    -4.90900   -3.37700    8.06800
      C    C129    -5.48400   -2.09100    7.47800
      O    O130    -5.47200   -1.01600    8.13900
      N    N131    -6.01600   -2.17900    6.25200
      N    N132    -0.83600   -2.90500    8.88900
      C    C133    -0.02500   -2.45100   10.00500
      C    C134     0.54500   -1.04100    9.79000
      O    O135     0.41800   -0.15400   10.65100
      C    C136     1.10300   -3.43600   10.21900
      C    C137     2.09900   -3.00400   11.23300
      C    C138     1.83900   -3.14600   12.57100
      C    C139     3.33500   -2.44000   10.84300
      C    C140     2.79100   -2.76900   13.51000
      C    C141     4.28200   -2.07400   11.80400
      C    C142     4.00400   -2.23200   13.13400
      N    N143     1.18600   -0.83700    8.64400
      C    C144     1.69200    0.50800    8.29400
      C    C145     0.57300    1.58500    8.29700
      O    O146     0.76900    2.69100    8.81800
      C    C147     2.48600    0.46200    7.00400
      C    C148     3.76600   -0.33900    7.23600
      C    C149     2.86100    1.86400    6.53900
      C    C150     4.36100   -0.84300    5.95500
      N    N151    -0.60100    1.27000    7.74800
      C    C152    -1.73300    2.22300    7.82200
      C    C153    -2.15600    2.54400    9.26500
      O    O154    -2.29300    3.70500    9.59700
      C    C155    -2.91900    1.60700    7.11800
      O    O156    -2.51300    1.31800    5.79300
      C    C157    -4.18700    2.52800    7.17000
      N    N158    -2.35400    1.51000   10.10300
      C    C159    -2.73300    1.70000   11.50600
      C    C160    -1.64100    2.43400   12.26400
      O    O161    -1.91200    3.40300   12.94100
      C    C162    -3.05100    0.39100   12.23800
      C    C163    -4.16000   -0.38700   11.58600
      O    O164    -4.86500    0.19400   10.71400
      O    O165    -4.31000   -1.60400   11.90300
      N    N166    -0.41900    1.96300   12.11900
      C    C167     0.73600    2.60600   12.76500
      C    C168     0.87700    4.06500   12.42500
      O    O169     1.14100    4.86700   13.28500
      C    C170     2.00500    1.86400   12.42900
      N    N171     0.69200    4.41700   11.16600
      C    C172     0.79300    5.81400   10.73800
      C    C173    -0.32100    6.74600   11.19500
      O    O174    -0.05900    7.91300   11.49700
      C    C175     0.82800    5.85300    9.21500
      O    O176     1.86700    5.01300    8.78700
      N    N177    -1.56500    6.25300   11.20800
      C    C178    -2.68200    7.02500   11.75200
      C    C179    -2.48300    7.27900   13.24900
      O    O180    -2.85400    8.35200   13.74300
      C    C181    -4.02500    6.30800   11.51100
      C    C182    -4.56700    6.46000   10.11100
      N    N183    -4.85900    5.38400    9.30400
      C    C184    -4.93100    7.56000    9.41100
      C    C185    -5.34900    5.81600    8.15400
      N    N186    -5.39000    7.13400    8.19000
      N    N187    -1.91300    6.30700   13.95700
      C    C188    -1.60400    6.45800   15.38800
      C    C189    -0.56400    7.61000   15.63300
      O    O190    -0.66100    8.34900   16.56900
      C    C191    -1.04100    5.15900   15.93800
      C    C192    -2.08400    4.06900   16.23400
      C    C193    -1.47000    2.75400   16.63100
      O    O194    -0.22400    2.65400   16.79400
      O    O195    -2.23000    1.78800   16.74900
      N    N196     0.39900    7.72100   14.74200
      C    C197     1.35400    8.82900   14.71800
      C    C198     0.69000   10.14900   14.38300
      O    O199     1.04300   11.17900   14.97700
      C    C200     2.48400    8.54100   13.72300
      C    C201     3.37400    7.36000   14.11200
      C    C202     4.08100    6.85700   12.84500
      C    C203     4.35600    7.80800   15.18200
      N    N204    -0.27100   10.10800   13.47000
      C    C205    -1.03700   11.32000   13.03900
      C    C206    -1.67300   12.13100   14.20000
      O    O207    -1.58000   13.36100   14.24400
      C    C208    -2.10600   10.96100   12.00900
      C    C209    -1.94400   11.63800   10.66900
      C    C210    -3.19300   11.57000    9.82100
      N    N211    -2.82000   11.92500    8.45700
      C    C212    -3.54400   11.70500    7.35200
      N    N213    -3.05200   12.07900    6.17000
      N    N214    -4.74300   11.11600    7.39600
      N    N215    -2.23100   11.43500   15.17500
      C    C216    -2.98600   12.07300   16.23700
      C    C217    -2.16200   12.94600   17.23700
      O    O218    -2.50900   14.08200   17.47000
      C    C219    -3.84300   11.00800   16.93300
      O    O220    -4.58100   10.32700   15.91200
      C    C221    -4.80200   11.64000   17.92500
      N    N222    -1.08600   12.41500   17.84000
      C    C223    -0.18300   13.36600   18.52600
      C    C224     0.35400   14.50800   17.64100
      O    O225     0.43100   15.63900   18.11100
      C    C226     0.95200   12.49300   19.02700
      C    C227     0.77400   11.16200   18.38700
      C    C228    -0.67100   11.02700   18.02000
      N    N229     0.74800   14.22800   16.39700
      C    C230     1.23300   15.27100   15.51100
      C    C231     0.27400   16.41800   15.25300
      O    O232     0.70800   17.56600   15.07000
      C    C233     1.52800   14.72900   14.11200
      C    C234     2.92400   14.59100   13.67100
      C    C235     3.02700   13.91800   12.29000
      C    C236     3.55600   15.97900   13.75800
      N    N237    -1.01200   16.08700   15.08500
      C    C238    -2.01700   17.09800   14.69900
      C    C239    -2.16500   18.04900   15.88800
      O    O240    -2.22000   19.23300   15.69400
      C    C241    -3.36700   16.47200   14.25400
      O    O242    -3.17900   15.65600   13.07100
      C    C243    -4.37800   17.57600   13.93100
      N    N244    -2.10500   17.52400   17.10800
      C    C245    -2.01700   18.35600   18.29800
      C    C246    -0.75700   19.30000   18.32400
      O    O247    -0.88400   20.47900   18.55100
      C    C248    -2.06200   17.46000   19.53300
      O    O249    -3.32300   16.78400   19.54400
      C    C250    -1.91600   18.25200   20.85900
      N    N251     0.43000   18.74600   18.11100
      C    C252     1.68900   19.51300   18.06400
      C    C253     1.57500   20.62600   17.04200
      O    O254     1.80100   21.76100   17.35100
      C    C255     2.90600   18.61900   17.69400
      C    C256     3.18600   17.65500   18.84300
      C    C257     4.11600   19.51000   17.38500
      C    C258     3.85100   16.37400   18.48700
      N    N259     1.16600   20.28700   15.83400
      C    C260     1.00800   21.28000   14.78500
      C    C261    -0.08500   22.30600   15.14500
      O    O262     0.13100   23.49000   14.97600
      C    C263     0.68700   20.58400   13.45900
      C    C264     1.23300   21.22900   12.19800
      C    C265     1.37200   20.13800   11.12100
      N    N266     1.53100   20.68700    9.76800
      C    C267     1.36600   20.01400    8.61800
      N    N268     1.02300   18.72200    8.60200
      N    N269     1.54000   20.65000    7.45400
      N    N270    -1.25500   21.84200   15.59900
      C    C271    -2.34400   22.76300   15.96200
      C    C272    -1.97500   23.74200   17.07800
      O    O273    -2.31400   24.93000   17.02600
      N    N274    -1.30000   23.25300   18.11000
      C    C275    -0.92300   24.10600   19.24200
      C    C276     0.15100   25.13700   18.85800
      O    O277     0.08500   26.29100   19.27600
      C    C278    -0.52300   23.27100   20.46800
      C    C279    -1.69600   22.68500   21.25400
      C    C280    -2.95900   22.58000   20.72900
      C    C281    -1.51300   22.27700   22.57500
      C    C282    -4.01700   22.04200   21.47800
      C    C283    -2.56200   21.70800   23.32000
      C    C284    -3.81100   21.59900   22.75600
      N    N285     1.10200   24.73400   18.03200
      C    C286     2.08700   25.68300   17.43800
      C    C287     1.42900   26.71000   16.51000
      O    O288     1.74700   27.84300   16.58300
      C    C289     3.17300   24.93600   16.70600
      N    N290     0.48500   26.31100   15.68600
      C    C291    -0.25900   27.24100   14.83400
      C    C292    -1.11300   28.21600   15.68800
      O    O293    -1.24900   29.38000   15.34700
      C    C294    -1.13600   26.44100   13.84700
      C    C295    -2.11100   27.24200   12.96000
      C    C296    -1.42000   28.20400   11.99200
      O    O297    -0.21800   28.01500   11.68700
      O    O298    -2.07800   29.16100   11.50500
      N    N299    -1.65700   27.75100   16.81400
      C    C300    -2.40300   28.64500   17.72900
      C    C301    -1.53700   29.79200   18.25300
      O    O302    -1.95700   30.97300   18.30500
      C    C303    -2.96700   27.84500   18.88500
      C    C304    -4.07500   28.43700   19.74400
      C    C305    -5.27500   28.74200   18.88000
      C    C306    -4.53500   27.39900   20.76600
      N    N307    -0.31300   29.44200   18.60900
      C    C308     0.66700   30.43400   18.96800
      C    C309     0.95700   31.45500   17.85100
      O    O310     1.05100   32.65600   18.08400
      C    C311     1.97500   29.73800   19.38900
      C    C312     3.04500   30.72000   19.75900
      C    C313     3.82300   31.33300   18.77500
      C    C314     3.26800   31.07900   21.12400
      C    C315     4.78200   32.29600   19.10100
      C    C316     4.22300   32.04500   21.45700
      C    C317     4.99400   32.64900   20.44600
      O    O318     5.97100   33.59000   20.78600
      N    N319     1.17200   30.99100   16.63500
      C    C320     1.54400   31.90000   15.54500
      C    C321     0.38800   32.83000   15.16800
      O    O322     0.62500   33.94800   14.69400
      C    C323     1.98200   31.06500   14.32900
      C    C324     2.44600   31.82700   13.11400
      C    C325     3.01800   30.88400   12.04000
      N    N326     1.93200   30.26500   11.30000
      C    C327     1.99600   29.74500   10.06900
      N    N328     3.12400   29.73400    9.35100
      N    N329     0.89500   29.22500    9.53000
      N    N330    -0.84700   32.39400   15.42600
      C    C331    -2.05200   33.22600   15.24200
      C    C332    -2.25200   34.27100   16.29900
      O    O333    -3.23700   34.97900   16.26200
      C    C334    -3.34200   32.34500   15.23500
      C    C335    -3.51000   31.47200   13.99900
      C    C336    -3.62300   32.26400   12.70300
      O    O337    -4.27500   33.32100   12.63700
      N    N338    -2.97700   31.75100   11.65500
      N    N339    -1.38200   34.34100   17.28900
      C    C340    -1.53300   35.29600   18.34400
      C    C341    -2.38800   34.84600   19.52400
      O    O342    -2.60200   35.65200   20.45000
      N    N343    -2.83700   33.58400   19.53700
      C    C344    -3.89100   33.16100   20.50200
      C    C345    -3.42600   32.53600   21.80700
      O    O346    -4.26500   31.93800   22.48800
      C    C347    -4.90900   32.23200   19.83600
      N    N348    -2.12600   32.55800   22.11600
      C    C349    -1.62700   31.85900   23.31600
      C    C350    -1.37200   32.86000   24.44500
      O    O351    -0.56200   33.80100   24.28300
      C    C352    -0.40200   31.03600   23.03800
      N    N353    -2.13600   32.71600   25.52400
      C    C354    -1.97300   33.50500   26.74800
      C    C355    -0.91000   32.79100   27.62700
      O    O356    -0.23500   33.43600   28.42600
      C    C357    -3.27300   33.54500   27.57600
      C    C358    -4.44800   34.30200   27.03900
      C    C359    -5.69700   34.16500   27.91500
      N    N360    -6.82600   34.87700   27.26900
      C    C361    -7.03300   36.19500   27.29300
      N    N362    -6.20000   36.97700   27.95200
      N    N363    -8.08400   36.74900   26.64000
      N    N364    -0.82800   31.45300   27.53700
      C    C365     0.08500   30.64600   28.35700
      C    C366     0.82200   29.62400   27.49300
      O    O367     0.44400   28.48200   27.38100
      C    C368    -0.64700   29.95000   29.51800
      C    C369     0.28500   29.17500   30.43800
      O    O370     1.50300   29.17500   30.18200
      O    O371    -0.19600   28.49800   31.41000
      N    N372     1.94600   30.06700   26.96600
      C    C373     2.83400   29.26300   26.18600
      C    C374     3.48400   28.11700   27.00400
      O    O375     3.88700   27.13100   26.42300
      C    C376     3.87500   30.17300   25.43500
      C    C377     4.88000   30.80200   26.41600
      C    C378     4.60300   29.37500   24.37000
      N    N379     3.57700   28.25100   28.33300
      C    C380     3.98200   27.16900   29.24100
      C    C381     3.08100   25.92500   29.12300
      O    O382     3.55800   24.84100   28.91800
      N    N383     1.76500   26.10100   29.16900
      C    C384     0.86200   24.94100   29.04100
      C    C385     0.86500   24.41200   27.61300
      O    O386     0.81100   23.22300   27.38900
      C    C387    -0.56600   25.31400   29.43700
      C    C388    -1.50900   24.09400   29.57600
      S    S389    -3.12900   24.65600   30.08900
      C    C390    -4.20800   23.37000   29.46000
      N    N391     0.91200   25.30600   26.64200
      C    C392     0.93200   24.93500   25.22700
      C    C393     2.13700   24.03800   24.91900
      O    O394     2.01300   22.97400   24.32000
      C    C395     1.01300   26.24200   24.43100
      C    C396     0.68000   26.32800   22.97400
      C    C397    -0.81600   26.31700   22.85800
      C    C398     1.17200   27.64200   22.39600
      N    N399     3.30600   24.49200   25.35600
      C    C400     4.54700   23.76800   25.24800
      C    C401     4.55700   22.44200   26.01800
      O    O402     5.05000   21.44400   25.54100
      C    C403     5.71500   24.65400   25.74900
      C    C404     7.11300   24.00400   25.56800
      C    C405     7.35800   23.62700   24.09900
      C    C406     8.17700   24.96100   26.06300
      N    N407     4.03400   22.44600   27.21800
      C    C408     3.87500   21.20700   27.98700
      C    C409     3.09400   20.08100   27.26400
      O    O410     3.47600   18.88500   27.23000
      C    C411     3.17600   21.63100   29.26500
      O    O412     3.00000   20.57300   30.10500
      N    N413     1.98100   20.46100   26.67600
      C    C414     1.16500   19.53000   25.92900
      C    C415     1.92900   19.06200   24.68000
      O    O416     1.87800   17.92100   24.39000
      C    C417    -0.15100   20.16600   25.49800
      C    C418    -1.03900   20.64400   26.65300
      C    C419    -1.64200   19.44500   27.34300
      N    N420    -2.28500   19.74900   28.61000
      C    C421    -1.67600   19.95400   29.78000
      N    N422    -2.42900   20.17300   30.85900
      N    N423    -0.34600   19.99500   29.88600
      N    N424     2.58500   19.97500   23.96000
      C    C425     3.44400   19.64000   22.84400
      C    C426     4.52400   18.60800   23.21400
      O    O427     4.74700   17.60300   22.48900
      C    C428     4.10300   20.93900   22.21900
      C    C429     3.06400   21.72200   21.39900
      C    C430     5.31500   20.52600   21.35900
      C    C431     3.50800   23.12700   20.99800
      N    N432     5.20200   18.87600   24.32100
      C    C433     6.21900   18.00200   24.84700
      C    C434     5.67600   16.64300   25.21200
      O    O435     6.34200   15.64200   24.92200
      C    C436     6.92700   18.60200   26.07500
      C    C437     7.83200   19.78700   25.78800
      C    C438     8.29200   20.51000   27.07600
      O    O439     7.48700   21.08700   27.83200
      O    O440     9.48700   20.46300   27.37600
      N    N441     4.46500   16.62900   25.79500
      C    C442     3.73800   15.41100   26.16900
      C    C443     3.47800   14.55800   24.93700
      O    O444     3.77700   13.36600   24.91100
      C    C445     2.39500   15.79800   26.82800
      O    O446     1.69900   14.66300   27.23400
      N    N447     2.94100   15.17800   23.90500
      C    C448     2.64400   14.44400   22.66200
      C    C449     3.91600   14.00500   21.90800
      O    O450     3.94300   12.94300   21.36800
      C    C451     1.76400   15.27500   21.74900
      C    C452     0.39800   15.61600   22.31100
      C    C453    -0.34300   14.39700   22.83200
      O    O454    -0.36600   13.34800   22.14500
      O    O455    -0.86300   14.48000   23.95900
      N    N456     4.96400   14.82200   21.92700
      C    C457     6.26200   14.45300   21.35200
      C    C458     6.83000   13.18900   21.98400
      O    O459     7.41900   12.35100   21.27000
      C    C460     7.26800   15.60000   21.49000
      N    N461     6.68300   13.09200   23.30300
      C    C462     7.13200   11.93900   24.07500
      C    C463     6.32400   10.70400   23.72900
      O    O464     6.90500    9.63000   23.50600
      C    C465     7.00200   12.16600   25.60300
      O    O466     7.84100   13.22000   26.01800
      N    N467     5.00200   10.84900   23.76300
      C    C468     4.07000    9.78300   23.34100
      C    C469     4.43000    9.23100   21.91800
      O    O470     4.54700    8.04700   21.71100
      C    C471     2.62600   10.31100   23.34700
      C    C472     1.60100    9.38100   22.66600
      C    C473     0.19300    9.96200   22.57200
      N    N474    -0.29000   10.30000   23.89700
      C    C475    -0.71000    9.41800   24.80500
      N    N476    -0.74000    8.10900   24.55100
      N    N477    -1.12300    9.85200   25.99200
      N    N478     4.67800   10.13600   21.00400
      C    C479     5.06900    9.84700   19.67000
      C    C480     6.42300    9.11200   19.62100
      O    O481     6.63400    8.23500   18.85000
      C    C482     5.13300   11.14900   18.93300
      C    C483     4.76300   11.04300   17.50500
      S    S484     4.51700   12.57300   16.66400
      C    C485     4.96400   11.96900   15.06200
      N    N486     7.32900    9.51000   20.47000
      C    C487     8.62900    8.89300   20.57800
      C    C488     8.50800    7.45700   21.02000
      O    O489     9.25400    6.64700   20.59600
      N    N490     7.59800    7.15300   21.93300
      C    C491     7.38000    5.77000   22.29900
      C    C492     6.77900    4.94500   21.16300
      O    O493     7.16400    3.79800   20.98400
      C    C494     6.49200    5.71100   23.52000
      C    C495     7.03800    6.32200   24.80500
      C    C496     5.90300    6.30600   25.80200
      C    C497     8.25100    5.58400   25.34900
      N    N498     5.82600    5.50700   20.43100
      C    C499     5.24000    4.84500   19.23800
      C    C500     6.29900    4.53000   18.17500
      O    O501     6.28700    3.46800   17.58500
      C    C502     4.16500    5.71400   18.62600
      C    C503     2.85300    5.87700   19.39700
      C    C504     2.02500    6.90300   18.64900
      C    C505     2.04100    4.57200   19.54100
      N    N506     7.20900    5.48200   17.93900
      C    C507     8.29200    5.36100   16.95400
      C    C508     9.31700    4.31000   17.41800
      O    O509     9.67200    3.47000   16.66600
      C    C510     8.95900    6.75400   16.64200
      C    C511    10.24500    6.59700   15.85100
      C    C512     8.02300    7.66000   15.89300
      N    N513     9.75000    4.31100   18.66500
      C    C514    10.65700    3.25900   19.10600
      C    C515    10.03100    1.86700   18.95600
      O    O516    10.70900    0.89900   18.61500
      C    C517    11.07100    3.46000   20.55200
      C    C518    11.96800    4.66600   20.74500
      O    O519    12.57600    5.15200   19.76000
      O    O520    12.03200    5.12600   21.90800
      N    N521     8.74900    1.75500   19.21500
      C    C522     8.05600    0.47300   19.07600
      C    C523     7.94400    0.04400   17.61700
      O    O524     8.12600   -1.13900   17.31900
      C    C525     6.70000    0.54300   19.76900
      C    C526     6.16200   -0.82900   20.21500
      O    O527     6.94700   -1.68500   20.70900
      O    O528     4.92300   -1.03200   20.13300
      N    N529     7.71700    1.00100   16.71100
      C    C530     7.80200    0.72100   15.29000
      C    C531     9.15400    0.23100   14.82500
      O    O532     9.24300   -0.72700   14.03100
      C    C533     7.43300    1.93700   14.43200
      C    C534     5.94800    2.18800   14.31500
      C    C535     5.66500    3.52200   13.63500
      C    C536     5.26800    1.00000   13.60500
      N    N537    10.19700    0.91400   15.27900
      C    C538    11.54300    0.54300   14.95600
      C    C539    11.80700   -0.92400   15.36100
      O    O540    12.33900   -1.72800   14.56600
      C    C541    12.52600    1.54800   15.57200
      C    C542    12.78000    2.90700   14.93100
      C    C543    13.86600    3.66100   15.69900
      C    C544    13.20400    2.71000   13.46000
      N    N545    11.33600   -1.31600   16.54900
      C    C546    11.51500   -2.69200   17.00600
      C    C547    10.66500   -3.68300   16.18200
      O    O548    11.18400   -4.72000   15.69500
      C    C549    11.20900   -2.80300   18.49500
      C    C550    12.21100   -2.03100   19.35400
      C    C551    11.58200   -1.82000   20.71500
      C    C552    13.51800   -2.81500   19.47800
      N    N553     9.42100   -3.30300   15.91400
      C    C554     8.46100   -4.19100   15.26900
      C    C555     8.82000   -4.43500   13.82800
      O    O556     8.53400   -5.50400   13.29700
      C    C557     7.03400   -3.62300   15.33900
      C    C558     6.25000   -3.74400   16.63800
      C    C559     5.11000   -2.71200   16.68900
      C    C560     5.69600   -5.16600   16.68400
      N    N561     9.45700   -3.44900   13.20800
      C    C562     9.94800   -3.59500   11.83700
      C    C563    10.99700   -4.70300   11.66900
      O    O564    11.22200   -5.15900   10.56500
      C    C565    10.51100   -2.22400   11.31600
      N    N566    11.67700   -5.09500   12.75000
      C    C567    12.61900   -6.22400   12.71400
      C    C568    11.92200   -7.56900   12.87600
      O    O569    12.57700   -8.56900   12.65600
      C    C570    13.68500   -6.12500   13.84100
      C    C571    14.49600   -4.81300   13.92200
      C    C572    15.32200   -4.67800   12.67200
      C    C573    16.32800   -3.53200   12.67700
      N    N574    16.99500   -3.48400   11.33700
      N    N575    10.63400   -7.61900   13.27300
      C    C576     9.99400   -8.87900   13.64500
      C    C577     9.25700   -9.53100   12.52700
      O    O578     9.07900  -10.75700   12.54200
      C    C579     9.00300   -8.70200   14.78300
      C    C580     9.53500   -8.24900   16.12600
      C    C581     8.48200   -8.47400   17.19600
      C    C582    10.80700   -9.00100   16.46900
      O    O583     8.83900   -8.83000   11.60200
