# CIF file generated by openbabel 2.3.2, see http://openbabel.sf.net
data_I
_chemical_name_common '../proteins/pdb/5UQ4.pdb'
_cell_length_a 38.134
_cell_length_b 38.134
_cell_length_c 238.638
_cell_angle_alpha 90
_cell_angle_beta 90
_cell_angle_gamma 120
_space_group_name_H-M_alt 'P 61'
_space_group_name_Hall 'P 61'
loop_
    _symmetry_equiv_pos_as_xyz
    'x,y,z'
    '-y,x-y,1/3+z'
    '-x+y,-x,2/3+z'
    '-x,-y,1/2+z'
    'y,-x+y,5/6+z'
    'x-y,x,1/6+z'
loop_
    _atom_site_type_symbol
    _atom_site_label
    _atom_site_Cartn_x
    _atom_site_Cartn_y
    _atom_site_Cartn_z
      N    N1    11.41800   11.56700    9.48100
      C    C2    10.16700   11.43700   10.21900
      C    C3     9.04700   10.93900    9.31300
      O    O4     8.70100   11.59900    8.33200
      C    C5     9.77700   12.77300   10.85400
      C    C6    10.82700   13.34700   11.79400
      S    S7    11.25400   12.23100   13.14700
      C    C8    12.89100   11.69600   12.65200
      N    N9     8.48600    9.77400    9.63800
      C    C10     7.39400    9.23200    8.82100
      C    C11     6.19200   10.16400    8.82400
      O    O12     5.87100   10.79300    9.83500
      C    C13     7.07400    7.89300    9.49600
      C    C14     8.29800    7.55400   10.28500
      C    C15     8.86400    8.86500   10.73200
      N    N16     5.52900   10.25100    7.67200
      C    C17     4.40300   11.15300    7.48600
      C    C18     3.22000   10.37100    6.93300
      O    O19     3.36500    9.28200    6.37300
      C    C20     4.75000   12.33000    6.54900
      C    C21     5.85300   13.18700    7.15500
      C    C22     5.15900   11.81400    5.18000
      N    N23     2.03300   10.94700    7.10400
      C    C24     0.79500   10.39900    6.56800
      C    C25     0.07200   11.51300    5.82500
      O    O26    -0.11200   12.60700    6.36800
      C    C27    -0.10000    9.81000    7.67500
      C    C28    -1.52400    9.62200    7.16900
      C    C29     0.47100    8.48900    8.17500
      N    N30    -0.32200   11.24000    4.58500
      C    C31    -1.04900   12.19300    3.75900
      C    C32    -2.46800   11.68700    3.54100
      O    O33    -2.66500   10.55300    3.09000
      C    C34    -0.34400   12.40400    2.41700
      C    C35     1.15200   12.65400    2.53400
      C    C36     1.44500   13.99700    3.19000
      C    C37     2.94500   14.22700    3.31900
      N    N38     3.26400   15.58100    3.84600
      N    N39    -3.45000   12.52400    3.86600
      C    C40    -4.86100   12.18300    3.72700
      C    C41    -5.48300   13.12900    2.71200
      O    O42    -5.50700   14.34800    2.92200
      C    C43    -5.60900   12.26400    5.06700
      C    C44    -5.06400   11.23000    6.05300
      C    C45    -7.10000   12.05600    4.85000
      C    C46    -5.75600   11.24900    7.39900
      N    N47    -5.98700   12.56800    1.61700
      C    C48    -6.76100   13.31600    0.63000
      C    C49    -8.23700   13.09400    0.94600
      O    O50    -8.79000   12.02800    0.66300
      C    C51    -6.41300   12.87200   -0.78700
      C    C52    -6.87700   13.86200   -1.83800
      O    O53    -7.15600   15.02100   -1.53400
      N    N54    -6.96200   13.40700   -3.08200
      N    N55    -8.87000   14.09900    1.54700
      C    C56   -10.28800   14.03900    1.89000
      C    C57   -11.09200   14.56400    0.70700
      O    O58   -11.08700   15.76800    0.43000
      C    C59   -10.57400   14.84300    3.15500
      N    N60   -11.78600   13.66600    0.01500
      C    C61   -12.45100   13.97800   -1.24500
      C    C62   -13.95800   13.94200   -1.03700
      O    O63   -14.49100   12.99400   -0.44900
      C    C64   -12.02600   13.00500   -2.35800
      C    C65   -11.99900   11.56900   -1.83000
      C    C66   -10.66200   13.39500   -2.90900
      C    C67   -11.44000   10.56900   -2.81400
      N    N68   -14.63900   14.97800   -1.52100
      C    C69   -16.09400   15.02700   -1.49300
      C    C70   -16.64400   14.12200   -2.58700
      O    O71   -16.41100   14.36600   -3.77600
      C    C72   -16.58000   16.46200   -1.68600
      C    C73   -17.90400   16.77100   -1.01200
      C    C74   -17.76500   16.94600    0.48500
      O    O75   -18.37200   16.15500    1.23600
      O    O76   -17.04300   17.87200    0.91100
      N    N77   -17.36500   13.07700   -2.19300
      C    C78   -17.91600   12.13400   -3.16300
      C    C79   -19.43900   12.19000   -3.11500
      O    O80   -20.02600   12.35300   -2.03400
      C    C81   -17.39000   10.70700   -2.91800
      C    C82   -15.88700   10.73300   -2.67500
      C    C83   -18.10900   10.04200   -1.75200
      N    N84   -20.11400   12.10800   -4.25500
      C    C85   -21.57700   12.03400   -4.24300
      C    C86   -22.05500   10.63900   -3.87600
      O    O87   -21.40100    9.63300   -4.16200
      C    C88   -21.96600   12.38600   -5.68700
      C    C89   -20.72200   12.95700   -6.31500
      C    C90   -19.58200   12.29900   -5.61300
      N    N91   -23.21500   10.59300   -3.22300
      C    C92   -23.82500    9.31700   -2.86800
      C    C93   -24.17500    8.53900   -4.12900
      O    O94   -25.15000    8.86100   -4.81500
      C    C95   -25.06900    9.53000   -2.00500
      N    N96   -23.38300    7.51800   -4.44300
      C    C97   -23.57100    6.76500   -5.66700
      C    C98   -22.30800    6.69300   -6.49800
      O    O99   -22.02700    5.67100   -7.13100
      N    N100   -21.53300    7.78000   -6.50800
      C    C101   -20.24800    7.77200   -7.19300
      C    C102   -19.18400    6.99700   -6.43000
      O    O103   -18.10100    6.76500   -6.97600
      C    C104   -19.77300    9.20600   -7.43500
      N    N105   -19.46900    6.59500   -5.19200
      C    C106   -18.54500    5.84900   -4.37000
      C    C107   -17.99800    4.58700   -5.01200
      O    O108   -16.78100    4.38100   -5.06600
      N    N109   -18.88500    3.70200   -5.48700
      C    C110   -18.40400    2.46400   -6.13200
      C    C111   -17.41400    2.69000   -7.26400
      O    O112   -16.38400    2.00600   -7.32500
      C    C113   -19.70400    1.81800   -6.62400
      C    C114   -20.72000    2.25800   -5.63600
      C    C115   -20.34200    3.66400   -5.25600
      N    N116   -17.69500    3.63000   -8.17000
      C    C117   -16.75500    3.90600   -9.25100
      C    C118   -15.45500    4.50000   -8.72400
      O    O119   -14.39700    4.32000   -9.33800
      C    C120   -17.38900    4.84200  -10.27900
      C    C121   -18.17900    4.12000  -11.35500
      C    C122   -17.37800    3.01400  -12.01400
      O    O123   -17.81700    1.84500  -11.96000
      O    O124   -16.30900    3.31300  -12.58600
      N    N125   -15.51500    5.20400   -7.59400
      C    C126   -14.30300    5.74200   -6.99000
      C    C127   -13.43200    4.63900   -6.40400
      O    O128   -12.20100    4.74800   -6.42100
      C    C129   -14.67300    6.76400   -5.91500
      C    C130   -13.54500    7.42700   -5.12700
      C    C131   -13.76000    8.92800   -5.08300
      C    C132   -13.46700    6.85500   -3.72200
      N    N133   -14.04700    3.57000   -5.89200
      C    C134   -13.28100    2.48200   -5.29800
      C    C135   -12.62600    1.59900   -6.35100
      O    O136   -11.58400    0.99100   -6.08100
      C    C137   -14.18000    1.64400   -4.38900
      C    C138   -14.81900    2.44000   -3.26200
      C    C139   -15.79400    1.61700   -2.44400
      O    O140   -15.83800    0.38400   -2.63300
      O    O141   -16.51600    2.20600   -1.61300
      N    N142   -13.21300    1.51100   -7.54600
      C    C143   -12.60200    0.75000   -8.62700
      C    C144   -11.42700    1.48200   -9.25800
      O    O145   -10.54800    0.83600   -9.83900
      C    C146   -13.64300    0.42900   -9.70300
      C    C147   -14.88900   -0.29100   -9.19600
      C    C148   -14.55900   -1.35300   -8.15500
      C    C149   -15.71600   -1.55700   -7.18600
      N    N150   -16.39700   -0.27700   -6.84700
      N    N151   -11.39400    2.81200   -9.15700
      C    C152   -10.30500    3.59000   -9.73600
      C    C153    -9.06500    3.57000   -8.85100
      O    O154    -7.93700    3.55800   -9.35800
      C    C155   -10.76600    5.02800   -9.97300
      C    C156    -9.65000    5.99500  -10.33000
      C    C157   -10.00300    7.41100   -9.91500
      N    N158    -9.09500    8.39500  -10.49700
      C    C159    -9.22600    8.89800  -11.72000
      N    N160    -8.35600    9.79200  -12.16900
      N    N161   -10.23000    8.50900  -12.49400
      N    N162    -9.25000    3.56000   -7.53000
      C    C163    -8.11300    3.60700   -6.62100
      C    C164    -7.41800    2.26200   -6.47100
      O    O165    -6.28900    2.21800   -5.96900
      C    C166    -8.55600    4.12700   -5.25400
      C    C167    -8.52400    5.62300   -5.14700
      C    C168    -7.33900    6.31500   -5.33200
      C    C169    -9.67700    6.33900   -4.87500
      C    C170    -7.30200    7.69200   -5.24100
      C    C171    -9.64600    7.71600   -4.78200
      C    C172    -8.45700    8.39400   -4.96600
      N    N173    -8.05800    1.16900   -6.89000
      C    C174    -7.34100   -0.09600   -6.99300
      C    C175    -6.24500   -0.00600   -8.04600
      O    O176    -5.15900   -0.57300   -7.87600
      C    C177    -8.31400   -1.23000   -7.31500
      N    N178    -6.51000    0.71300   -9.14000
      C    C179    -5.47100    0.96300  -10.13300
      C    C180    -4.44100    1.95600   -9.61300
      O    O181    -3.23300    1.75700   -9.79000
      C    C182    -6.09200    1.48200  -11.43100
      C    C183    -7.27300    0.69000  -11.90100
      N    N184    -8.28500    1.24400  -12.65500
      C    C185    -7.60000   -0.61300  -11.73100
      C    C186    -9.18700    0.31800  -12.92600
      N    N187    -8.79500   -0.81800  -12.37700
      N    N188    -4.89700    3.03200   -8.96700
      C    C189    -3.97400    4.06100   -8.49900
      C    C190    -3.04300    3.53400   -7.41400
      O    O191    -1.91900    4.02900   -7.27200
      C    C192    -4.75200    5.27500   -7.99100
      C    C193    -5.39900    6.10700   -9.09300
      C    C194    -4.46600    6.27300  -10.28200
      N    N195    -4.54700    7.60700  -10.87100
      C    C196    -5.47900    7.98700  -11.73800
      N    N197    -6.41700    7.13400  -12.12600
      N    N198    -5.47000    9.22200  -12.22100
      N    N199    -3.48600    2.53600   -6.64500
      C    C200    -2.60800    1.92900   -5.65200
      C    C201    -1.41600    1.24700   -6.30800
      O    O202    -0.33800    1.16700   -5.70800
      C    C203    -3.38700    0.93100   -4.79800
      N    N204    -1.59000    0.75700   -7.53800
      C    C205    -0.49300    0.10500   -8.24500
      C    C206     0.67100    1.06300   -8.46800
      O    O207     1.83800    0.67300   -8.35000
      C    C208    -0.98700   -0.44100   -9.58300
      C    C209    -1.80100   -1.69200   -9.47300
      N    N210    -2.18900   -2.22700   -8.26400
      C    C211    -2.30200   -2.51300  -10.42600
      C    C212    -2.89300   -3.32500   -8.47700
      N    N213    -2.97700   -3.52000   -9.78000
      N    N214     0.37300    2.32100   -8.79200
      C    C215     1.39000    3.31800   -9.09700
      C    C216     2.05200    3.90300   -7.85400
      O    O217     2.67000    4.96900   -7.95000
      C    C218     0.78500    4.44600   -9.93600
      N    N219     1.95600    3.24600   -6.70000
      C    C220     2.50600    3.81500   -5.47500
      C    C221     3.00900    2.71600   -4.54900
      O    O222     3.86600    2.96300   -3.69300
      C    C223     1.46600    4.70300   -4.76400
      C    C224     0.49700    3.85900   -3.94600
      C    C225     2.15800    5.73300   -3.88400
      N    N226     2.50200    1.49100   -4.72300
      C    C227     2.79900    0.42500   -3.77100
      C    C228     4.27300    0.03800   -3.75900
      O    O229     4.74100   -0.53900   -2.77100
      C    C230     1.93700   -0.80500   -4.06400
      C    C231     2.13600   -1.40800   -5.44100
      C    C232     1.53500   -2.79600   -5.55300
      O    O233     2.27400   -3.74000   -5.90400
      O    O234     0.32300   -2.94400   -5.28600
      N    N235     5.01500    0.34500   -4.82200
      C    C236     6.44800    0.07800   -4.87400
      C    C237     7.26000    1.35400   -5.06800
      O    O238     8.41200    1.29200   -5.50600
      C    C239     6.76300   -0.93200   -5.97900
      C    C240     5.87500   -0.76200   -7.19300
      O    O241     5.26000    0.28700   -7.38400
      N    N242     5.79700   -1.80000   -8.01800
      N    N243     6.68000    2.51000   -4.75300
      C    C244     7.41000    3.76100   -4.85800
      C    C245     8.43900    3.86700   -3.73200
      O    O246     8.25900    3.28300   -2.66000
      C    C247     6.45000    4.94600   -4.80000
      O    O248     5.67600    5.03400   -5.98400
      N    N249     9.53200    4.59800   -3.95400
      C    C250    10.54700    4.74200   -2.90000
      C    C251    10.01600    5.57400   -1.74100
      O    O252     9.44400    6.64800   -1.93900
      C    C253    11.70900    5.44000   -3.61600
      C    C254    11.07700    6.13400   -4.77600
      C    C255     9.93500    5.26300   -5.20500
      N    N256    10.21700    5.06900   -0.52500
      C    C257     9.71200    5.70900    0.66900
      C    C258     8.28200    5.36100    1.02000
      O    O259     7.80800    5.76400    2.08900
      N    N260     7.58400    4.62200    0.16200
      C    C261     6.18600    4.29100    0.39400
      C    C262     6.06200    3.20600    1.45500
      O    O263     6.75300    2.18300    1.39600
      C    C264     5.53400    3.83500   -0.90800
      C    C265     4.09900    3.43500   -0.75700
      C    C266     3.10500    4.39400   -0.68400
      C    C267     3.74400    2.09900   -0.69800
      C    C268     1.78500    4.02700   -0.55200
      C    C269     2.42500    1.72900   -0.56400
      C    C270     1.44800    2.69100   -0.49700
      N    N271     5.16600    3.42500    2.42000
      C    C272     4.97800    2.50000    3.52600
      C    C273     3.58700    1.89400    3.61000
      O    O274     3.42100    0.88800    4.30700
      C    C275     5.28700    3.19300    4.86400
      C    C276     6.73200    3.63500    5.09100
      C    C277     6.86500    4.37000    6.41700
      C    C278     7.68200    2.44300    5.03400
      N    N279     2.59000    2.46500    2.93800
      C    C280     1.24700    1.91900    3.00300
      C    C281     0.17000    2.83300    2.45700
      O    O282     0.23000    4.05300    2.62900
      N    N283    -0.82000    2.24600    1.78800
      C    C284    -1.94800    2.96900    1.21800
      C    C285    -3.24400    2.37600    1.74800
      O    O286    -3.35900    1.15600    1.89900
      C    C287    -1.93600    2.90300   -0.31500
      C    C288    -3.16500    3.48200   -0.96600
      C    C289    -3.32000    4.84900   -1.08500
      C    C290    -4.15600    2.65900   -1.47200
      C    C291    -4.44200    5.38500   -1.68900
      C    C292    -5.28100    3.18700   -2.07400
      C    C293    -5.42500    4.55100   -2.18300
      N    N294    -4.22100    3.23800    2.02000
      C    C295    -5.51800    2.79900    2.51900
      C    C296    -6.61100    3.70200    1.96800
      O    O297    -6.48200    4.92900    1.99700
      C    C298    -5.55800    2.80500    4.05300
      C    C299    -4.78700    1.66700    4.70700
      C    C300    -4.92500    1.65600    6.21700
      O    O301    -5.29400    2.66000    6.82600
      N    N302    -4.62800    0.51500    6.83000
      N    N303    -7.67700    3.09200    1.46200
      C    C304    -8.88800    3.80400    1.07600
      C    C305    -9.94600    3.53700    2.13600
      O    O306   -10.25700    2.37700    2.42600
      C    C307    -9.38000    3.36600   -0.30300
      C    C308   -10.63700    4.08800   -0.79500
      C    C309   -10.35300    5.56600   -1.01500
      C    C310   -11.18000    3.44700   -2.06500
      N    N311   -10.49100    4.60400    2.71200
      C    C312   -11.41200    4.51000    3.83700
      C    C313   -12.76000    5.09600    3.44300
      O    O314   -12.86000    6.29600    3.16200
      C    C315   -10.84800    5.23600    5.06000
      C    C316    -9.48500    4.77800    5.58200
      C    C317    -9.08400    5.59800    6.79800
      C    C318    -9.49500    3.29300    5.91300
      N    N319   -13.79500    4.25100    3.43100
      C    C320   -15.15900    4.70600    3.18200
      C    C321   -15.78300    5.19300    4.48300
      O    O322   -15.77000    4.46000    5.47800
      C    C323   -16.00900    3.58800    2.59400
      C    C324   -17.47900    3.94700    2.44300
      C    C325   -18.37700    2.72800    2.61000
      N    N326   -18.08400    1.69100    1.62500
      C    C327   -17.90300    0.40800    1.91900
      N    N328   -17.98700   -0.00600    3.17600
      N    N329   -17.63900   -0.46300    0.95400
      N    N330   -16.33400    6.40400    4.51800
      C    C331   -16.87300    6.93500    5.77300
      C    C332   -18.11300    6.17700    6.21900
      O    O333   -18.74900    5.45300    5.45100
      C    C334   -17.20800    8.38800    5.42600
      C    C335   -17.47100    8.36200    3.95900
      C    C336   -16.53300    7.33200    3.39200
      N    N337   -18.45300    6.35800    7.49500
      C    C338   -19.60800    5.69200    8.08600
      C    C339   -20.33800    6.66300    9.00500
      O    O340   -21.55600    6.84600    8.89100
      C    C341   -19.18800    4.41700    8.84200
      C    C342   -20.16900    4.10500    9.96500
      C    C343   -19.08300    3.24100    7.88200
      N    N344   -19.60200    7.30000    9.91300
      C    C345   -20.19600    8.21400   10.87800
      C    C346   -19.21200    9.33300   11.18200
      O    O347   -18.01000    9.09100   11.32300
      C    C348   -20.58900    7.48500   12.16900
      C    C349   -21.08800    8.40100   13.27800
      C    C350   -21.92500    7.63900   14.29200
      C    C351   -23.30800    7.33100   13.74200
      N    N352   -24.11900    8.56500   13.55100
      N    N353   -19.73100   10.55400   11.28500
      C    C354   -18.91400   11.71300   11.56400
      C    C355   -18.13100   12.24400   10.38500
      O    O356   -17.35300   13.19200   10.55600
      N    N357   -18.31000   11.67300    9.19700
      C    C358   -17.55500   12.09000    8.02700
      C    C359   -18.35600   11.76700    6.77700
      O    O360   -18.98200   10.70700    6.68800
      C    C361   -16.18500   11.40300    7.97600
      C    C362   -15.28800   11.88600    6.84900
      C    C363   -15.03700   13.37900    6.90600
      O    O364   -14.43500   13.84600    7.89500
      O    O365   -15.44600   14.08600    5.96200
      N    N366   -18.34100   12.69400    5.81900
      C    C367   -18.96600   12.48600    4.52300
      C    C368   -17.95900   12.24000    3.41000
      O    O369   -18.36700   11.91700    2.28900
      C    C370   -19.83900   13.69400    4.15000
      C    C371   -20.73400   14.19500    5.27300
      C    C372   -21.45200   13.07100    5.99300
      O    O373   -21.35000   12.99900    7.23600
      O    O374   -22.11900   12.25900    5.31700
      N    N375   -16.66800   12.37700    3.68800
      C    C376   -15.62900   12.27000    2.67700
      C    C377   -14.91000   10.93100    2.77600
      O    O378   -14.76100   10.36000    3.86000
      C    C379   -14.61400   13.40600    2.82100
      C    C380   -15.22700   14.79500    2.77900
      C    C381   -14.21100   15.86200    3.15200
      N    N382   -13.85500   15.81700    4.56800
      C    C383   -12.99800   16.65200    5.14800
      N    N384   -12.40600   17.59800    4.43300
      N    N385   -12.73200   16.54200    6.44200
      N    N386   -14.47400   10.43200    1.62400
      C    C387   -13.53300    9.32400    1.59800
      C    C388   -12.15200    9.82500    2.00100
      O    O389   -11.73600   10.92100    1.61400
      C    C390   -13.47400    8.70200    0.20300
      C    C391   -14.48700    7.60900   -0.05300
      C    C392   -15.84200    7.89600   -0.14300
      C    C393   -14.08500    6.29000   -0.22100
      C    C394   -16.77100    6.89800   -0.38500
      C    C395   -15.00400    5.28700   -0.46400
      C    C396   -16.34500    5.59600   -0.54500
      O    O397   -17.26000    4.59700   -0.78500
      N    N398   -11.43900    9.02200    2.78300
      C    C399   -10.09000    9.35700    3.22500
      C    C400    -9.09900    8.49900    2.44500
      O    O401    -9.07300    7.27400    2.59900
      C    C402    -9.93700    9.15300    4.73200
      C    C403   -10.33300   10.35300    5.55300
      C    C404   -11.17800   11.32000    5.03300
      C    C405    -9.85700   10.51300    6.84400
      C    C406   -11.54200   12.42000    5.78400
      C    C407   -10.21800   11.61200    7.60200
      C    C408   -11.06100   12.56700    7.07100
      N    N409    -8.29900    9.14700    1.60400
      C    C410    -7.25300    8.49300    0.82500
      C    C411    -5.94600    8.66900    1.58700
      O    O412    -5.37300    9.76300    1.60700
      C    C413    -7.16200    9.07900   -0.59000
      C    C414    -5.97200    8.49500   -1.33700
      C    C415    -8.45500    8.83600   -1.35100
      N    N416    -5.46400    7.59500    2.20800
      C    C417    -4.35700    7.65300    3.15800
      C    C418    -3.13100    6.99000    2.54600
      O    O419    -3.21400    5.86400    2.04100
      C    C420    -4.73200    6.98100    4.48900
      C    C421    -3.57400    7.05500    5.46900
      C    C422    -5.97600    7.62700    5.07200
      N    N423    -1.99300    7.68300    2.60000
      C    C424    -0.71300    7.13200    2.17900
      C    C425     0.32300    7.36600    3.26700
      O    O426     0.34700    8.42700    3.89700
      C    C427    -0.21900    7.74500    0.86000
      O    O428    -0.27800    9.17500    0.93200
      C    C429    -1.06200    7.26300   -0.29800
      N    N430     1.18000    6.37000    3.47300
      C    C431     2.21000    6.39300    4.50200
      C    C432     3.57600    6.48900    3.83500
      O    O433     3.90000    5.68000    2.95900
      C    C434     2.12300    5.13800    5.37400
      C    C435     2.80100    5.26700    6.70200
      N    N436     3.47200    6.40600    7.09100
      C    C437     2.90800    4.39600    7.73400
      C    C438     3.96500    6.23100    8.30500
      N    N439     3.63700    5.02000    8.71700
      N    N440     4.37100    7.47500    4.24900
      C    C441     5.66700    7.73900    3.64200
      C    C442     6.74000    7.85100    4.71600
      O    O443     6.46200    8.16700    5.87600
      C    C444     5.64200    9.02300    2.80000
      C    C445     4.63000    8.99400    1.70000
      C    C446     3.32800    9.40100    1.77000
      C    C447     4.83400    8.52900    0.36100
      N    N448     2.71100    9.21900    0.55600
      C    C449     3.61400    8.68500   -0.32600
      C    C450     5.93200    7.99800   -0.32400
      C    C451     3.46000    8.32900   -1.66400
      C    C452     5.77700    7.64600   -1.65300
      C    C453     4.55100    7.81300   -2.30900
      N    N454     7.98300    7.59500    4.30400
      C    C455     9.12300    7.69600    5.20700
      C    C456     9.50300    9.13800    5.51300
      O    O457    10.10900    9.39600    6.55900
      C    C458    10.32900    6.96200    4.61600
      C    C459    10.12400    5.46500    4.46200
      C    C460    11.36300    4.75200    3.95200
      O    O461    12.26000    5.42600    3.40000
      O    O462    11.43800    3.51400    4.10200
      N    N463     9.16600   10.07300    4.62900
      C    C464     9.43200   11.48800    4.85100
      C    C465     8.54400   12.29000    3.91200
      O    O466     7.92500   11.74700    2.99400
      C    C467    10.91100   11.82500    4.63200
      O    O468    11.23800   11.80900    3.25300
      N    N469     8.49100   13.60100    4.15400
      C    C470     7.71900   14.47200    3.27400
      C    C471     8.38300   14.62100    1.91200
      O    O472     7.69100   14.79000    0.90200
      C    C473     7.52400   15.84200    3.92100
      C    C474     6.82500   16.82600    3.00200
      O    O475     5.70900   16.51500    2.53200
      O    O476     7.39300   17.90800    2.74500
      N    N477     9.71600   14.56000    1.86000
      C    C478    10.40700   14.67000    0.58000
      C    C479    10.18600   13.42700   -0.27200
      O    O480    10.04800   13.52500   -1.49700
      C    C481    11.89900   14.91500    0.80400
      C    C482    12.53500   15.85800   -0.21000
      C    C483    12.40600   15.36000   -1.63800
      O    O484    11.55200   15.88800   -2.38100
      O    O485    13.15800   14.43700   -2.01700
      N    N486    10.15300   12.24900    0.35600
      C    C487     9.79900   11.03700   -0.37600
      C    C488     8.40600   11.15400   -0.98300
      O    O489     8.16600   10.69000   -2.10300
      C    C490     9.88500    9.81900    0.54400
      N    N491     7.47700   11.78100   -0.25900
      C    C492     6.15100   12.02700   -0.81400
      C    C493     6.21000   13.06700   -1.92500
      O    O494     5.60400   12.89100   -2.98800
      C    C495     5.19000   12.47800    0.28700
      C    C496     3.99000   13.21700   -0.23000
      C    C497     2.96800   12.53700   -0.87100
      C    C498     3.88900   14.59100   -0.09000
      C    C499     1.86700   13.21100   -1.35500
      C    C500     2.78800   15.27000   -0.57300
      C    C501     1.77500   14.58000   -1.20500
      N    N502     6.94000   14.16200   -1.69300
      C    C503     7.00200   15.24200   -2.67100
      C    C504     7.73000   14.81800   -3.93900
      O    O505     7.38800   15.28300   -5.03200
      C    C506     7.67900   16.46700   -2.05700
      C    C507     6.91200   17.76500   -2.25900
      C    C508     5.58600   17.78000   -1.52600
      O    O509     5.48500   17.31300   -0.39100
      N    N510     4.55700   18.31800   -2.17300
      N    N511     8.73600   13.94900   -3.81900
      C    C512     9.42800   13.46100   -5.00600
      C    C513     8.49900   12.62800   -5.87800
      O    O514     8.54200   12.72200   -7.11100
      C    C515    10.65900   12.64900   -4.60300
      N    N516     7.64700   11.81100   -5.25600
      C    C517     6.69700   11.01100   -6.02100
      C    C518     5.59300   11.88000   -6.61100
      O    O519     5.21800   11.71100   -7.77700
      C    C520     6.10600    9.91600   -5.13100
      C    C521     4.94500    9.19600   -5.74700
      C    C522     4.99500    8.08200   -6.53400
      C    C523     3.55800    9.53700   -5.62300
      N    N524     3.72700    7.71000   -6.91000
      C    C525     2.82700    8.58800   -6.36500
      C    C526     2.86500   10.55300   -4.95700
      C    C527     1.43700    8.62500   -6.46000
      C    C528     1.48500   10.58900   -5.05400
      C    C529     0.78700    9.63100   -5.80000
      N    N530     5.07100   12.82400   -5.82400
      C    C531     3.94200   13.62800   -6.28000
      C    C532     4.35200   14.60700   -7.37300
      O    O533     3.62200   14.79300   -8.35300
      C    C534     3.32000   14.37400   -5.10000
      N    N535     5.51100   15.24300   -7.22500
      C    C536     5.94400   16.27400   -8.15700
      C    C537     6.83200   15.74200   -9.27300
      O    O538     7.32300   16.53400  -10.08400
      C    C539     6.67200   17.39000   -7.40300
      C    C540     5.72700   18.25200   -6.59000
      O    O541     5.91600   18.44000   -5.38800
      N    N542     4.69600   18.77600   -7.24200
      N    N543     7.05100   14.42800   -9.34100
      C    C544     7.78300   13.85400  -10.43200
      C    C545     7.00100   13.93400  -11.73200
      O    O546     5.85800   14.40700  -11.77100
      N    N547     7.61700   13.46800  -12.81500
      C    C548     6.92500   13.47300  -14.10800
      C    C549     5.75200   12.50600  -14.10800
      O    O550     5.76000   11.47900  -13.42500
      C    C551     8.01300   13.03400  -15.09300
      C    C552     8.95500   12.23000  -14.26700
      C    C553     8.95400   12.85800  -12.90100
      N    N554     4.73100   12.85000  -14.88900
      C    C555     3.49000   12.09200  -14.93100
      C    C556     3.15600   11.72200  -16.37000
      O    O557     3.78400   12.19100  -17.32300
      C    C558     2.33400   12.88200  -14.30300
      N    N559     2.14500   10.86200  -16.51400
      C    C560     1.70800   10.43700  -17.84200
      C    C561     1.14600   11.62200  -18.61800
      O    O562     1.47000   11.82900  -19.79400
      C    C563     0.67800    9.29800  -17.72800
      C    C564     1.37000    7.97900  -17.37700
      C    C565    -0.11000    9.15700  -19.01700
      C    C566     0.44100    6.78400  -17.37200
      N    N567     0.30100   12.41900  -17.97100
      C    C568    -0.30700   13.57700  -18.61400
      C    C569    -0.25300   14.80200  -17.70800
      O    O570    -0.14700   15.93300  -18.18300
      C    C571    -1.74200   13.27100  -19.00600
      N    N572   -11.85900   18.25500   -2.49000
      C    C573   -10.52600   17.67100   -2.38600
      C    C574    -9.63700   18.50400   -1.46900
      O    O575    -9.22000   19.60600   -1.82700
      C    C576    -9.89500   17.54200   -3.76300
      N    N577    -9.34900   17.96800   -0.28400
      C    C578    -8.54000   18.65200    0.71500
      C    C579    -7.41600   17.73100    1.16200
      O    O580    -7.66600   16.58500    1.55000
      C    C581    -9.38900   19.07500    1.91900
      O    O582   -10.56600   19.74500    1.50100
      N    N583    -6.18300   18.23000    1.10900
      C    C584    -5.02300   17.45300    1.52200
      C    C585    -4.70500   17.73400    2.98500
      O    O586    -4.56900   18.89300    3.38800
      C    C587    -3.81000   17.77100    0.64900
      C    C588    -2.62700   16.82600    0.86900
      C    C589    -2.95700   15.43000    0.35600
      C    C590    -1.36500   17.36100    0.21200
      N    N591    -4.59400   16.66900    3.77200
      C    C592    -4.27100   16.75400    5.19000
      C    C593    -2.90000   16.12700    5.39900
      O    O594    -2.68000   14.97100    5.02100
      C    C595    -5.33100   16.04900    6.03800
      C    C596    -6.61400   16.81000    6.39600
      C    C597    -7.41100   17.20900    5.16100
      C    C598    -7.47700   15.98100    7.33700
      N    N599    -1.98100   16.88800    5.99000
      C    C600    -0.59000   16.47800    6.14100
      C    C601    -0.26700   16.31600    7.62000
      O    O602    -0.52700   17.22100    8.42000
      C    C603     0.35100   17.49800    5.49200
      C    C604    -0.09700   17.95000    4.10400
      C    C605     1.05800   18.13500    3.13500
      O    O606     2.14800   17.58100    3.38500
      O    O607     0.87400   18.83500    2.11800
      N    N608     0.30100   15.16500    7.97900
      C    C609     0.56800   14.82200    9.36800
      C    C610     1.98200   14.27700    9.51400
      O    O611     2.63100   13.89300    8.53900
      C    C612    -0.42200   13.77200    9.89900
      C    C613    -1.83800   14.25600    9.99000
      C    C614    -2.67800   14.18700    8.89400
      C    C615    -2.33700   14.76000   11.17900
      C    C616    -3.98100   14.62200    8.97800
      C    C617    -3.64000   15.19700   11.26900
      C    C618    -4.46200   15.13100   10.16600
      N    N619     2.44300   14.24100   10.76300
      C    C620     3.68400   13.58100   11.14100
      C    C621     3.35200   12.46800   12.12300
      O    O622     2.62500   12.69100   13.09600
      C    C623     4.67700   14.56600   11.76800
      C    C624     5.43000   15.41600   10.76000
      C    C625     6.62200   16.12900   11.36900
      O    O626     6.74300   16.13800   12.61200
      O    O627     7.43800   16.68200   10.60200
      N    N628     3.87300   11.27100   11.86400
      C    C629     3.59200   10.12600   12.72100
      C    C630     4.37800   10.27400   14.01500
      O    O631     5.58200   10.00000   14.05900
      C    C632     3.92600    8.79900   12.01900
      C    C633     3.56400    7.62300   12.91200
      C    C634     3.19800    8.70800   10.69000
      N    N635     3.70100   10.71800   15.07500
      C    C636     4.35700   10.88200   16.36800
      C    C637     4.83100    9.53500   16.89600
      O    O638     5.98000    9.38800   17.32700
      C    C639     3.41400   11.57700   17.36500
      C    C640     3.98500   11.49900   18.76500
      C    C641     3.18400   13.01800   16.95700
      N    N642     3.95200    8.53700   16.87000
      C    C643     4.31800    7.18400   17.25600
      C    C644     3.37600    6.21000   16.56200
      O    O645     2.19900    6.51100   16.34400
      C    C646     4.27700    6.99600   18.77900
      C    C647     2.93800    7.15100   19.50100
      C    C648     2.32900    5.79000   19.77900
      C    C649     3.11700    7.92800   20.79400
      N    N650     3.91500    5.04800   16.19800
      C    C651     3.16700    4.02200   15.48200
      C    C652     3.31100    2.71000   16.23600
      O    O653     4.43000    2.23200   16.44800
      C    C654     3.66600    3.88200   14.03900
      C    C655     2.87800    2.85800   13.23500
      O    O656     3.27500    2.57500   12.08600
      O    O657     1.86400    2.33500   13.74200
      N    N658     2.18200    2.13600   16.64300
      C    C659     2.14500    0.86300   17.35100
      C    C660     1.25600   -0.09200   16.57100
      O    O661     0.16800    0.28500   16.12400
      C    C662     1.63300    1.02600   18.79700
      C    C663     1.80700   -0.26900   19.56600
      C    C664     2.35800    2.16500   19.49500
      N    N665     1.72100   -1.32600   16.40500
      C    C666     0.95100   -2.33700   15.70600
      C    C667     1.73800   -3.06900   14.63900
      O    O668     1.76100   -4.30000   14.61000
