# CIF file generated by openbabel 2.3.2, see http://openbabel.sf.net
data_I
_chemical_name_common '../proteins/pdb/5X3T.pdb'
_cell_length_a 64.221
_cell_length_b 64.221
_cell_length_c 216.134
_cell_angle_alpha 90
_cell_angle_beta 90
_cell_angle_gamma 90
_space_group_name_H-M_alt 'P 41'
_space_group_name_Hall 'P 4w'
loop_
    _symmetry_equiv_pos_as_xyz
    'x,y,z'
    '-x,-y,1/2+z'
    '-y,x,1/4+z'
    'y,-x,3/4+z'
loop_
    _atom_site_type_symbol
    _atom_site_label
    _atom_site_Cartn_x
    _atom_site_Cartn_y
    _atom_site_Cartn_z
      N    N1     1.27100   44.45300  143.67800
      C    C2     1.51700   45.28400  142.51000
      C    C3     2.07200   46.63300  142.93600
      O    O4     1.35500   47.44900  143.51400
      C    C5     0.23100   45.47400  141.70000
      C    C6     0.46900   45.97100  140.28700
     Se   Se7     1.04500   44.45400  139.22300
      C    C8     0.53100   45.05100  137.45500
      N    N9     3.35200   46.85900  142.66000
      C    C10     3.98800   48.11900  143.01300
      C    C11     3.83600   49.12000  141.88700
      O    O12     4.00900   48.78700  140.71500
      C    C13     5.47400   47.92000  143.34100
      C    C14     5.69100   47.20600  144.66400
      O    O15     4.73900   47.14600  145.46600
      O    O16     6.80900   46.70100  144.90400
      N    N17     3.52400   50.35500  142.25300
      C    C18     3.38500   51.41400  141.27500
      C    C19     4.73200   52.09300  141.06500
      O    O20     5.26000   52.74300  141.96600
      C    C21     2.32400   52.41700  141.73100
      C    C22     2.40200   53.75700  141.03100
      C    C23     1.04000   54.44000  140.94200
      C    C24     0.12000   54.10000  142.10800
      N    N25    -1.28600   53.93300  141.64200
      N    N26     5.27400   51.94000  139.86100
      C    C27     6.58300   52.48600  139.51800
      C    C28     6.46200   53.65600  138.54600
      O    O29     5.63100   53.64200  137.63900
      C    C30     7.49000   51.40400  138.89700
      O    O31     7.63000   50.31700  139.81700
      C    C32     8.87600   51.96000  138.56600
      N    N33     7.29400   54.67000  138.74700
      C    C34     7.32900   55.82400  137.86300
      C    C35     8.71600   55.98700  137.25800
      O    O36     9.70600   56.11700  137.97800
      C    C37     6.94400   57.10600  138.60400
      O    O38     7.72100   57.20900  139.80300
      C    C39     5.46800   57.08200  138.97000
      N    N40     8.79000   55.97000  135.93400
      C    C41    10.06900   56.12800  135.25900
      C    C42    10.01500   57.25100  134.24100
      O    O43     8.98600   57.47400  133.60400
      C    C44    10.50400   54.83100  134.55200
      C    C45    10.69600   53.73000  135.56800
      C    C46     9.48200   54.41600  133.49800
      N    N47    11.11800   57.97400  134.09400
      C    C48    11.21400   58.90300  132.98200
      C    C49    11.60400   58.13900  131.72800
      O    O50    12.58800   57.40000  131.71400
      C    C51    12.21800   60.02600  133.24400
      C    C52    12.11900   61.12700  132.20600
      C    C53    11.22300   62.17600  132.35900
      C    C54    12.89000   61.08900  131.04900
      C    C55    11.11700   63.17300  131.40100
      C    C56    12.79100   62.07800  130.08600
      C    C57    11.90400   63.11700  130.26600
      O    O58    11.81000   64.09900  129.30400
      N    N59    10.79500   58.29300  130.68800
      C    C60    11.09500   57.74100  129.37600
      C    C61    11.29300   58.90700  128.42000
      O    O62    10.39000   59.73100  128.26500
      C    C63     9.96800   56.82600  128.89500
      C    C64     9.70800   55.57400  129.73700
      C    C65     8.53800   54.77100  129.18300
      C    C66    10.96100   54.71400  129.81800
      N    N67    12.48100   59.01700  127.80500
      C    C68    12.61700   60.11900  126.84600
      C    C69    11.67200   59.95600  125.65400
      O    O70    11.29700   58.83400  125.31900
      C    C71    14.08100   60.03000  126.40500
      C    C72    14.76600   59.26500  127.48900
      C    C73    13.74700   58.29100  127.99900
      N    N74    11.30100   61.07600  125.04100
      C    C75    10.36700   61.12400  123.91600
      C    C76    10.69200   60.13900  122.79200
      O    O77     9.79200   59.53300  122.20100
      C    C78    10.33600   62.53900  123.35700
      C    C79    11.69400   62.98800  122.84300
      O    O80    12.70500   62.30200  123.11700
      O    O81    11.74800   64.02800  122.16000
      N    N82    11.98200   59.99900  122.50300
      C    C83    12.48200   58.99900  121.56600
      C    C84    11.86000   57.62000  121.81900
      O    O85    11.26200   57.00600  120.93000
      C    C86    14.01600   58.93000  121.68500
      C    C87    14.42900   58.80600  123.15900
      C    C88    15.60800   57.89900  123.41100
      O    O89    15.97500   57.11700  122.50900
      O    O90    16.11900   57.91300  124.55100
      N    N91    11.94200   57.19700  123.07300
      C    C92    11.63200   55.84600  123.49700
      C    C93    10.13300   55.64100  123.62000
      O    O94     9.61400   54.56300  123.33400
      C    C95    12.31200   55.57100  124.83700
      C    C96    12.69300   54.15200  125.24100
      C    C97    13.63500   53.59100  124.20400
      C    C98    13.37500   54.22700  126.58900
      N    N99     9.44700   56.68800  124.06000
      C    C100     8.00000   56.65700  124.20100
      C    C101     7.35100   56.59400  122.82600
      O    O102     6.33100   55.92700  122.63900
      C    C103     7.51200   57.87900  124.98000
      C    C104     6.10100   57.75000  125.52300
      C    C105     6.00100   58.30800  126.93800
      C    C106     6.56500   59.71800  127.04400
      N    N107     6.37200   60.28000  128.41200
      N    N108     7.95500   57.28300  121.86200
      C    C109     7.49000   57.22000  120.48400
      C    C110     7.78700   55.85400  119.87300
      O    O111     6.97900   55.32200  119.11000
      C    C112     8.12500   58.32100  119.65700
      N    N113     8.95000   55.29600  120.20300
      C    C114     9.28700   53.93600  119.77500
      C    C115     8.23500   52.93900  120.26700
      O    O116     7.69500   52.13600  119.49200
      C    C117    10.66500   53.54200  120.28500
      N    N118     7.95100   53.01300  121.56400
      C    C119     6.95700   52.16600  122.21400
      C    C120     5.58700   52.33200  121.57900
      O    O121     4.90900   51.34700  121.30500
      C    C122     6.84600   52.47800  123.72000
      C    C123     5.60600   51.82900  124.32000
      C    C124     8.08500   52.02000  124.44300
      N    N125     5.18600   53.58100  121.35900
      C    C126     3.90000   53.88300  120.73900
      C    C127     3.80200   53.23500  119.36000
      O    O128     2.79000   52.61300  119.01400
      C    C129     3.70600   55.39700  120.63400
      C    C130     2.34500   55.81300  120.10200
      C    C131     2.15100   57.31800  120.19300
      C    C132     0.92400   57.76100  119.41300
      N    N133    -0.25200   57.96000  120.30500
      N    N134     4.86900   53.38300  118.58200
      C    C135     4.95800   52.75600  117.27100
      C    C136     4.75000   51.24300  117.35600
      O    O137     3.87700   50.68200  116.67600
      C    C138     6.31000   53.05800  116.62900
      C    C139     6.21500   53.74800  115.27900
      C    C140     7.35500   54.74100  115.08500
      N    N141     8.62700   54.19400  115.54700
      C    C142     9.66100   54.93400  115.93700
      N    N143     9.57600   56.25800  115.93000
      N    N144    10.77900   54.34900  116.34500
      N    N145     5.55200   50.59100  118.19800
      C    C146     5.46300   49.14300  118.37500
      C    C147     4.05800   48.72100  118.81100
      O    O148     3.54500   47.68200  118.38400
      C    C149     6.49600   48.66900  119.38500
      N    N150     3.44100   49.54700  119.64900
      C    C151     2.12000   49.26700  120.18800
      C    C152     1.07200   49.28000  119.09100
      O    O153     0.27300   48.34900  118.98200
      C    C154     1.76600   50.27300  121.26900
      N    N155     1.07400   50.32800  118.27300
      C    C156     0.09200   50.40700  117.19400
      C    C157     0.35400   49.41600  116.06700
      O    O158    -0.56300   49.06800  115.32600
      C    C159     0.01500   51.82900  116.62900
      C    C160    -0.69500   52.79900  117.55100
      C    C161    -0.87200   54.16100  116.91600
      N    N162     0.40100   54.83100  116.68800
      C    C163     0.98700   54.95000  115.50200
      N    N164     0.41200   54.45200  114.41400
      N    N165     2.14800   55.58000  115.40600
      N    N166     1.59500   48.95900  115.93400
      C    C167     1.88600   47.92600  114.94300
      C    C168     1.44900   46.53900  115.41300
      O    O169     1.04100   45.70400  114.60500
      C    C170     3.37200   47.90600  114.59600
      C    C171     3.73300   48.80100  113.41900
      C    C172     3.39500   48.17000  112.07800
      O    O173     2.26000   47.75700  111.83700
      N    N174     4.38400   48.10200  111.19400
      N    N175     1.57700   46.28000  116.71200
      C    C176     1.15100   45.00300  117.29000
      C    C177    -0.33200   44.95400  117.66200
      O    O178    -0.90600   43.87100  117.80900
      C    C179     2.00100   44.67600  118.51300
      C    C180     3.40700   44.22500  118.14900
      C    C181     4.33200   44.18400  119.35300
      N    N182     3.69100   43.67700  120.56400
      C    C183     3.37700   42.40100  120.77300
      N    N184     3.63400   41.48400  119.84800
      N    N185     2.80300   42.03900  121.91300
      N    N186    -0.95100   46.12100  117.81200
      C    C187    -2.35500   46.19300  118.17900
      C    C188    -2.62100   45.92500  119.65100
      O    O189    -3.60100   45.26500  120.00000
      N    N190    -1.74200   46.43000  120.51600
      C    C191    -1.90600   46.29600  121.96700
      C    C192    -1.55600   47.59500  122.70300
      O    O193    -1.03400   48.53700  122.10900
      C    C194    -1.04400   45.15300  122.54900
      C    C195    -1.51000   43.79500  122.02500
      C    C196     0.43000   45.38100  122.25000
      N    N197    -1.85100   47.63400  124.00000
      C    C198    -1.54400   48.79100  124.84200
      C    C199    -0.04100   49.06200  124.92300
      O    O200     0.77200   48.15700  124.72700
      C    C201    -2.09200   48.58200  126.25200
      O    O202    -1.49300   47.45200  126.87000
      N    N203     0.32400   50.31000  125.20100
      C    C204     1.72800   50.67200  125.39700
      C    C205     2.26500   49.99900  126.66400
      O    O206     3.43100   49.57300  126.73400
      C    C207     1.87600   52.19800  125.47400
      C    C208     1.61300   52.90700  124.14600
      C    C209     1.82800   54.40600  124.22200
      O    O210     2.23100   54.89400  125.29800
      O    O211     1.59800   55.09600  123.20400
      N    N212     1.38100   49.89300  127.65200
      C    C213     1.66500   49.21500  128.90900
      C    C214     2.16600   47.79000  128.69100
      O    O215     3.17400   47.37900  129.27100
      C    C216     0.42300   49.20300  129.78200
      N    N217     1.45300   47.04300  127.85100
      C    C218     1.79000   45.65000  127.57900
      C    C219     3.15600   45.52300  126.90900
      O    O220     3.94800   44.64400  127.26500
      C    C221     0.71400   44.99200  126.71100
      C    C222     0.91600   43.49200  126.52900
      C    C223     0.09300   42.90700  125.39600
      O    O224    -1.06000   43.28400  125.19000
      N    N225     0.68100   41.96700  124.66200
      N    N226     3.42500   46.39800  125.94200
      C    C227     4.72200   46.43600  125.27400
      C    C228     5.83400   46.64200  126.29600
      O    O229     6.84500   45.93000  126.28600
      C    C230     4.78900   47.55900  124.21500
      C    C231     6.18900   47.65400  123.62100
      C    C232     3.74700   47.33900  123.12600
      N    N233     5.63200   47.61100  127.18600
      C    C234     6.62100   47.90500  128.21900
      C    C235     6.85800   46.70300  129.15000
      O    O236     8.01100   46.30400  129.38300
      C    C237     6.20400   49.14100  129.04800
      C    C238     6.30400   50.40900  128.19400
      C    C239     7.06900   49.27300  130.28700
      C    C240     5.70900   51.63400  128.84800
      N    N241     5.77600   46.11900  129.66500
      C    C242     5.88300   44.95500  130.54800
      C    C243     6.62600   43.80300  129.88200
      O    O244     7.53100   43.20800  130.47200
      C    C245     4.49500   44.48400  130.99900
      C    C246     4.53200   43.28300  131.94000
      C    C247     3.19600   43.05600  132.64700
      N    N248     2.65400   44.28200  133.22800
      C    C249     1.44800   44.37800  133.78100
      N    N250     0.65600   43.31600  133.84500
      N    N251     1.03400   45.53500  134.28000
      N    N252     6.23600   43.49900  128.64900
      C    C253     6.87100   42.42900  127.89500
      C    C254     8.35600   42.69800  127.66800
      O    O255     9.17400   41.78700  127.79500
      C    C256     6.16700   42.21900  126.55400
      C    C257     4.77700   41.60600  126.67400
      C    C258     4.08400   41.46500  125.33100
      O    O259     4.73000   41.74000  124.29800
      O    O260     2.89400   41.08100  125.30900
      N    N261     8.70300   43.94100  127.33900
      C    C262    10.10400   44.31000  127.13300
      C    C263    10.91800   44.04700  128.39400
      O    O264    11.95400   43.36100  128.36600
      C    C265    10.22200   45.78200  126.72900
      O    O266     9.42900   46.07100  125.58400
      N    N267    10.41900   44.58300  129.50400
      C    C268    11.07200   44.41600  130.80000
      C    C269    11.25200   42.94400  131.17900
      O    O270    12.35300   42.53200  131.54600
      C    C271    10.28100   45.11500  131.91500
      C    C272    10.21700   46.62700  131.66800
      C    C273    10.91300   44.84400  133.26100
      C    C274     9.25800   47.35100  132.59400
      N    N275    10.17400   42.16200  131.10300
      C    C276    10.25500   40.72500  131.37500
      C    C277    11.27800   40.03800  130.49000
      O    O278    12.01900   39.16900  130.94200
      C    C279     8.88900   40.04700  131.19500
      C    C280     8.96400   38.52600  131.30600
      C    C281     7.63000   37.90300  131.66700
      N    N282     7.69200   36.44300  131.64000
      C    C283     7.35400   35.65500  132.65700
      N    N284     6.93900   36.18100  133.80100
      N    N285     7.44000   34.33700  132.53200
      N    N286    11.30300   40.43100  129.22500
      C    C287    12.25900   39.87800  128.28300
      C    C288    13.69100   40.16500  128.71400
      O    O289    14.56500   39.31500  128.56300
      C    C290    12.01000   40.42100  126.89200
      N    N291    13.94400   41.36200  129.24000
      C    C292    15.31100   41.70100  129.65700
      C    C293    15.73800   41.09300  131.00200
      O    O294    16.79600   40.47100  131.09000
      C    C295    15.48700   43.20900  129.69600
      N    N296    14.93200   41.28700  132.04600
      C    C297    15.31800   40.84700  133.39300
      C    C298    14.72200   39.51700  133.85900
      O    O299    15.06500   39.03700  134.94200
      C    C300    14.93800   41.88600  134.45100
      C    C301    15.60800   43.20900  134.14900
      C    C302    13.43400   42.05400  134.51100
      N    N303    13.83200   38.93100  133.06200
      C    C304    13.16600   37.69900  133.44900
      C    C305    12.07800   37.87700  134.49500
      O    O306    11.76400   38.99100  134.91600
      N    N307    11.50700   36.75200  134.90700
      C    C308    10.45900   36.69000  135.90700
      C    C309    11.04700   36.33800  137.25700
      O    O310    12.11600   36.82800  137.62600
      N    N311    10.31700   35.51700  138.00600
      C    C312    10.79900   34.97700  139.27400
      C    C313    12.18100   34.37800  139.08000
      O    O314    12.46600   33.78300  138.04200
      C    C315     9.83900   33.92300  139.80900
      N    N316    13.04600   34.55700  140.07200
      C    C317    14.42800   34.11000  139.95100
      C    C318    14.50800   32.59500  139.80300
      O    O319    14.04400   31.85700  140.67400
      C    C320    15.25200   34.56400  141.15800
      C    C321    16.74800   34.36400  140.99200
      C    C322    17.50400   34.84600  142.21500
      C    C323    17.41300   33.83400  143.34400
      N    N324    17.78200   34.42600  144.65800
      N    N325    15.08400   32.12700  138.68400
      C    C326    15.28600   30.69300  138.46300
      C    C327    16.17400   30.09300  139.54200
      O    O328    17.16900   30.71100  139.91300
      C    C329    15.98800   30.62900  137.09900
      C    C330    16.51700   32.00500  136.86300
      C    C331    15.56200   32.93100  137.54700
      N    N332    15.80200   28.91700  140.06500
      C    C333    16.65600   28.17900  141.00000
      C    C334    17.96300   27.75000  140.33700
      O    O335    17.98200   27.50500  139.12900
      C    C336    15.79800   26.96600  141.36900
      C    C337    14.39800   27.44900  141.19900
      C    C338    14.44700   28.34500  139.99400
      N    N339    19.05100   27.67300  141.11400
      C    C340    20.33400   27.24900  140.54700
      C    C341    20.36300   25.76600  140.19100
      O    O342    19.56200   24.99200  140.71500
      C    C343    21.32300   27.55300  141.66900
      C    C344    20.51100   27.45200  142.91100
      C    C345    19.16500   28.01300  142.54300
      N    N346    21.28000   25.38100  139.30800
      C    C347    21.47300   23.97700  138.96900
      C    C348    22.91200   23.55600  139.22900
      O    O349    23.85500   24.17600  138.73300
      C    C350    21.11200   23.71200  137.51200
      C    C351    19.65600   23.97600  137.15600
      C    C352    19.45800   23.99500  135.64200
      N    N353    18.06600   24.22000  135.25600
      C    C354    17.62900   24.22400  133.99800
      N    N355    18.47100   24.02200  132.99300
      N    N356    16.34500   24.43900  133.74200
      N    N357    23.07400   22.51700  140.03900
      C    C358    24.38200   21.94800  140.30400
      C    C359    24.55900   20.62100  139.59900
      O    O360    23.69600   20.20700  138.82800
      N    N361    25.67000   19.94900  139.88600
      C    C362    25.93000   18.61800  139.36600
      C    C363    25.87700   18.50600  137.85300
      O    O364    25.14700   17.67700  137.31200
      N    N365    26.66000   19.33500  137.17000
      C    C366    26.63300   19.40600  135.71000
      C    C367    27.62200   18.46200  135.03800
      O    O368    27.55800   18.22200  133.82700
      C    C369    26.90900   20.83200  135.27000
      C    C370    25.69600   21.69900  135.49100
     Se   Se371    25.97700   23.60100  135.64900
      C    C372    24.10900   24.07000  135.34000
      N    N373    28.53300   17.91500  135.83200
      C    C374    29.52100   16.99500  135.31000
      C    C375    30.03400   16.12500  136.44100
      O    O376    29.68600   16.33100  137.59900
      C    C377    30.66700   17.76400  134.63400
      C    C378    31.25400   18.90300  135.45400
      C    C379    30.72100   20.18500  135.39400
      C    C380    32.34900   18.69100  136.27900
      C    C381    31.26100   21.22500  136.14100
      C    C382    32.89800   19.71800  137.02700
      C    C383    32.35000   20.98300  136.95600
      O    O384    32.89700   21.99900  137.70300
      N    N385    30.87100   15.15800  136.10100
      C    C386    31.51200   14.33000  137.10700
      C    C387    33.00000   14.38300  136.83300
      O    O388    33.45900   13.98500  135.76300
      C    C389    30.98800   12.89800  137.07600
      N    N390    33.74400   14.91800  137.79200
      C    C391    35.16200   15.14400  137.60800
      C    C392    35.95900   13.90500  137.93900
      O    O393    35.43200   12.95500  138.51100
      N    N394    37.22900   13.90700  137.55300
      C    C395    38.11300   12.79600  137.85800
      C    C396    38.53100   12.82200  139.32400
      O    O397    38.35800   11.84600  140.05300
      C    C398    39.34200   12.84500  136.95900
      O    O399    39.00400   13.35000  135.68300
      N    N400    39.04400   13.96800  139.75600
      C    C401    39.65600   14.09200  141.07200
      C    C402    39.00500   15.20300  141.88900
      O    O403    38.67300   16.25600  141.34400
      C    C404    41.15300   14.36200  140.90500
      C    C405    41.44700   15.62400  140.09800
      C    C406    42.92700   15.87400  139.89200
      O    O407    43.60200   15.01500  139.28700
      O    O408    43.41600   16.93400  140.33500
      N    N409    38.79900   14.97200  143.19800
      C    C410    38.30100   16.10100  143.99400
      C    C411    39.32900   17.22600  144.06300
      O    O412    40.43900   17.01300  144.55600
      C    C413    38.07700   15.48700  145.38400
      C    C414    38.81500   14.17400  145.36700
      C    C415    38.80000   13.70900  143.95100
      N    N416    38.96400   18.40600  143.57100
      C    C417    39.82200   19.58500  143.67500
      C    C418    39.33500   20.65400  144.66200
      O    O419    40.01900   21.65100  144.89100
      C    C420    40.01200   20.22300  142.29200
      C    C421    38.68300   20.71400  141.72700
      C    C422    40.65400   19.22800  141.33200
      C    C423    38.83700   21.90700  140.82600
      N    N424    38.15900   20.44200  145.24400
      C    C425    37.42900   21.51400  145.92800
      C    C426    38.10600   22.00800  147.20300
      O    O427    37.97400   23.17800  147.57200
      C    C428    36.02000   21.05500  146.23800
      N    N429    38.82200   21.11500  147.87500
      C    C430    39.49900   21.47600  149.11200
      C    C431    40.94100   21.89500  148.81900
      O    O432    41.69300   22.27500  149.71500
      C    C433    39.46200   20.31000  150.09200
      C    C434    38.03500   19.91700  150.49300
      C    C435    37.99700   19.28900  151.87700
      N    N436    36.63600   19.16600  152.39500
      C    C437    36.08500   20.02100  153.25200
      N    N438    36.77400   21.06800  153.68600
      N    N439    34.83900   19.83700  153.67100
      N    N440    41.32500   21.79700  147.55200
      C    C441    42.69600   22.08000  147.12900
      C    C442    42.94800   23.45800  146.48800
      O    O443    44.04100   23.69700  145.97800
      C    C444    43.15600   20.97300  146.21300
      C    C445    42.98400   19.62900  146.90000
      C    C446    43.42100   18.49500  146.03000
      N    N447    44.85800   18.51600  145.80500
      C    C448    45.45400   17.80500  144.85900
      N    N449    44.72100   17.03300  144.07000
      N    N450    46.76800   17.86100  144.70100
      N    N451    41.95800   24.35200  146.53800
      C    C452    41.94700   25.61500  145.78200
      C    C453    43.30000   26.34700  145.74300
      O    O454    43.86900   26.52800  144.65600
      C    C455    40.87700   26.57600  146.35400
      C    C456    41.01500   27.96600  145.75100
      C    C457    39.47400   26.02100  146.12200
      N    N458    43.80100   26.76300  146.91000
      C    C459    45.09600   27.45100  147.01600
      C    C460    46.18100   26.76300  146.20500
      O    O461    46.86600   27.39400  145.40200
      C    C462    45.57500   27.52100  148.47000
      C    C463    44.77500   28.48400  149.31300
      O    O464    44.15600   29.42000  148.75700
      O    O465    44.79800   28.31300  150.54900
      N    N466    46.31600   25.45900  146.42100
      C    C467    47.32200   24.64700  145.75100
      C    C468    47.17600   24.65400  144.22200
      O    O469    48.17900   24.71800  143.50800
      C    C470    47.25800   23.21500  146.29200
      C    C471    48.14500   22.21700  145.58400
      C    C472    48.03100   20.83400  146.18400
      O    O473    47.05500   20.59400  146.92600
      O    O474    48.91300   19.99100  145.91600
      N    N475    45.93800   24.60200  143.72500
      C    C476    45.69900   24.40700  142.28800
      C    C477    45.54000   25.69300  141.49000
      O    O478    45.48200   25.66700  140.25800
      C    C479    44.46100   23.54500  142.07300
      C    C480    44.54600   22.15100  142.67900
      C    C481    43.21200   21.50200  142.49700
      C    C482    45.64000   21.34400  142.00600
      N    N483    45.45200   26.80800  142.20300
      C    C484    45.42800   28.13400  141.59600
      C    C485    46.77800   28.55300  141.03800
      O    O486    46.92700   29.66700  140.55600
      C    C487    44.93900   29.19500  142.58800
      C    C488    43.42700   29.43800  142.63000
      C    C489    43.03000   30.20000  143.87900
      C    C490    43.03700   30.19400  141.39000
      N    N491    47.76200   27.67100  141.15700
      C    C492    49.17200   27.98600  140.91500
      C    C493    49.46300   28.86100  139.68400
      O    O494    49.99000   29.96100  139.82200
      C    C495    49.96300   26.69000  140.81300
      N    N496    49.13200   28.38200  138.49000
      C    C497    49.43300   29.12900  137.27700
      C    C498    48.39700   30.16300  136.85500
      O    O499    48.36100   30.56400  135.69300
      N    N500    47.54600   30.58000  137.79000
      C    C501    46.52200   31.60200  137.54200
      C    C502    47.12300   32.89500  136.98300
      O    O503    48.09900   33.41800  137.52000
      C    C504    45.76000   31.87800  138.84400
      C    C505    44.57600   32.79800  138.70200
      C    C506    43.49900   32.47000  137.89300
      C    C507    44.52200   33.97400  139.43200
      C    C508    42.40700   33.31900  137.79300
      C    C509    43.43600   34.82300  139.33900
      C    C510    42.37800   34.49800  138.51800
      N    N511    46.54000   33.40200  135.89900
      C    C512    47.02500   34.61900  135.26600
      C    C513    48.21600   34.36900  134.35800
      O    O514    48.86800   35.30800  133.89300
      N    N515    48.48900   33.08900  134.11800
      C    C516    49.58400   32.64400  133.25700
      C    C517    50.93700   33.18400  133.71700
      O    O518    51.68700   32.50400  134.42200
      C    C519    49.32800   33.05300  131.80300
      C    C520    47.92200   32.76200  131.26000
      C    C521    47.50200   31.30400  131.37400
      O    O522    47.37900   30.64400  130.32000
      O    O523    47.25100   30.82500  132.50100
