# CIF file generated by openbabel 2.3.2, see http://openbabel.sf.net
data_I
_chemical_name_common '../proteins/pdb/5XFS.pdb'
_cell_length_a 54.74
_cell_length_b 69.96
_cell_length_c 203.549
_cell_angle_alpha 90
_cell_angle_beta 90
_cell_angle_gamma 90
_space_group_name_H-M_alt 'P 21 21 21'
_space_group_name_Hall 'P 2ac 2ab'
loop_
    _symmetry_equiv_pos_as_xyz
    'x,y,z'
    '1/2-x,-y,1/2+z'
    '-x,1/2+y,1/2-z'
    '1/2+x,1/2-y,-z'
loop_
    _atom_site_type_symbol
    _atom_site_label
    _atom_site_Cartn_x
    _atom_site_Cartn_y
    _atom_site_Cartn_z
      N    N1   -58.78600  -23.66500   26.05500
      C    C2   -59.16300  -22.28500   26.33100
      C    C3   -59.53300  -21.57400   25.04000
      O    O4   -58.70700  -20.89000   24.44400
      C    C5   -58.02300  -21.50100   27.01000
      C    C6   -58.51400  -20.84600   28.29400
      C    C7   -56.82000  -22.39900   27.26800
      N    N8   -60.78400  -21.73200   24.60400
      C    C9   -61.25400  -21.10300   23.36700
      C    C10   -61.27300  -19.58500   23.48500
      O    O11   -61.41000  -18.88900   22.48100
      C    C12   -62.68500  -21.63300   23.22300
      C    C13   -62.76400  -22.82500   24.11500
      C    C14   -61.83200  -22.53600   25.24800
      N    N15   -61.14500  -19.08000   24.70800
      C    C16   -61.13800  -17.64600   24.93800
      C    C17   -59.74600  -17.10100   24.64900
      O    O18   -59.53100  -15.89100   24.64900
      C    C19   -61.53200  -17.33400   26.38200
      C    C20   -62.80800  -18.01500   26.84600
      C    C21   -63.86700  -17.02700   27.29600
      O    O22   -64.66300  -17.37100   28.19200
      O    O23   -63.90600  -15.90500   26.75300
      N    N24   -58.79700  -18.00200   24.41900
      C    C25   -57.43400  -17.60200   24.10700
      C    C26   -57.05600  -17.94700   22.86000
      O    O27   -56.20900  -17.32000   22.23400
      C    C28   -56.40700  -18.18100   25.27800
      C    C29   -56.08100  -17.28600   26.46500
      C    C30   -54.92100  -16.34700   26.19600
      O    O31   -53.88500  -16.46600   26.88100
      O    O32   -55.04300  -15.48700   25.30200
      N    N33   -57.71400  -18.97600   22.33900
      C    C34   -57.47600  -19.39800   20.97000
      C    C35   -58.04900  -18.34600   20.04300
      O    O36   -57.30800  -17.60100   19.41400
      C    C37   -58.11600  -20.75200   20.69700
      C    C38   -57.16900  -21.95000   20.75300
      C    C39   -57.91800  -23.24200   20.48600
      C    C40   -56.03500  -21.78100   19.76000
      N    N41   -59.37400  -18.27800   19.96700
      C    C42   -60.03100  -17.28500   19.12300
      C    C43   -59.41400  -15.89900   19.29000
      O    O44   -59.42300  -15.10400   18.34300
      C    C45   -61.52700  -17.26100   19.42600
      O    O46   -61.72500  -17.48800   20.82600
      C    C47   -62.24700  -18.35300   18.62800
      N    N48   -58.86400  -15.59100   20.46700
      C    C49   -58.10700  -14.35100   20.62100
      C    C50   -56.89000  -14.34300   19.70600
      O    O51   -56.68500  -13.40000   18.93400
      C    C52   -57.68300  -14.16000   22.07700
      N    N53   -56.06900  -15.39700   19.77600
      C    C54   -54.91500  -15.49800   18.88600
      C    C55   -55.33200  -15.52300   17.42100
      O    O56   -54.56300  -15.10200   16.54800
      C    C57   -54.10100  -16.74700   19.22200
      N    N58   -56.53600  -16.01900   17.13200
      C    C59   -57.06600  -15.96600   15.77400
      C    C60   -57.20800  -14.52800   15.30200
      O    O61   -56.64000  -14.13300   14.27600
      C    C62   -58.41900  -16.67100   15.71100
      N    N63   -57.97400  -13.72900   16.05000
      C    C64   -58.26500  -12.36500   15.63200
      C    C65   -57.03000  -11.47600   15.73700
      O    O66   -56.79200  -10.62900   14.86600
      C    C67   -59.42200  -11.80700   16.46400
      N    N68   -56.22700  -11.64700   16.78900
      C    C69   -55.01300  -10.84700   16.90600
      C    C70   -54.08300  -11.09000   15.72300
      O    O71   -53.46600  -10.15300   15.20700
      C    C72   -54.30800  -11.14800   18.23000
      C    C73   -52.77900  -11.15900   18.15500
      C    C74   -52.12300  -11.30700   19.52400
      O    O75   -52.01400  -10.34000   20.28300
      N    N76   -51.68300  -12.52000   19.84300
      N    N77   -53.99000  -12.33500   15.26000
      C    C78   -53.12000  -12.63500   14.13200
      C    C79   -53.74400  -12.29700   12.78500
      O    O80   -53.04200  -12.31800   11.76500
      C    C81   -52.71700  -14.10800   14.17200
      C    C82   -51.57600  -14.30600   15.16700
      C    C83   -51.16400  -15.74100   15.26300
      C    C84   -50.40400  -13.42100   14.74500
      N    N85   -55.03800  -12.00300   12.74800
      C    C86   -55.66100  -11.60400   11.50600
      C    C87   -55.46600  -10.12700   11.26200
      O    O88   -55.35100   -9.68300   10.11600
      N    N89   -55.42700   -9.36200   12.35800
      C    C90   -55.13800   -7.93400   12.30800
      C    C91   -53.65300   -7.65600   12.07600
      O    O92   -53.28300   -6.53200   11.71000
      C    C93   -55.63200   -7.25600   13.60200
      O    O94   -55.86700   -5.86600   13.36200
      C    C95   -54.62500   -7.38100   14.72900
      N    N96   -52.80100   -8.66000   12.27100
      C    C97   -51.39600   -8.52900   11.92300
      C    C98   -51.19600   -8.83900   10.44600
      O    O99   -50.28900   -8.29100    9.80000
      C    C100   -50.56500   -9.45200   12.83000
      C    C101   -50.58800   -8.93900   14.27100
      C    C102   -49.14000   -9.56800   12.33100
      C    C103   -50.03600   -7.51800   14.41100
      N    N104   -52.03900   -9.71200    9.88900
      C    C105   -51.95500  -10.01200    8.47400
      C    C106   -52.58300   -8.94200    7.61800
      O    O107   -52.13200   -8.70300    6.49300
      N    N108   -53.63200   -8.29300    8.12500
      C    C109   -54.15800   -7.11400    7.44800
      C    C110   -53.11300   -6.00500    7.42500
      O    O111   -52.81600   -5.44600    6.36400
      C    C112   -55.44600   -6.64100    8.12600
      N    N113   -52.52100   -5.69800    8.59100
      C    C114   -51.45600   -4.69600    8.66900
      C    C115   -50.27500   -5.05400    7.77700
      O    O116   -49.55500   -4.16600    7.31300
      C    C117   -50.99300   -4.53500   10.11900
      N    N118   -50.05800   -6.34800    7.53100
      C    C119   -49.00200   -6.78100    6.62800
      C    C120   -49.42700   -6.62600    5.17700
      O    O121   -48.67100   -6.10600    4.35800
      C    C122   -48.62000   -8.23000    6.92600
      C    C123   -47.13200   -8.41100    7.16600
      S    S124   -46.09000   -8.34400    5.69100
      C    C125   -45.42500   -6.69600    5.83700
      N    N126   -50.62900   -7.08700    4.83600
      C    C127   -51.18900   -6.76800    3.52800
      C    C128   -51.16200   -5.26500    3.26700
      O    O129   -50.96800   -4.82700    2.12300
      C    C130   -52.62300   -7.29500    3.43200
      N    N131   -51.33000   -4.46700    4.32700
      C    C132   -51.38100   -3.01700    4.18800
      C    C133   -50.04300   -2.46400    3.72700
      O    O134   -49.97900   -1.70100    2.75500
      C    C135   -51.80400   -2.37900    5.51200
      N    N136   -48.95800   -2.83200    4.41500
      C    C137   -47.64800   -2.40000    3.95500
      C    C138   -47.31900   -2.97200    2.58700
      O    O139   -46.51700   -2.38000    1.85900
      C    C140   -46.57000   -2.78500    4.96700
      C    C141   -45.37900   -1.83600    4.99900
      C    C142   -45.48900   -0.81600    6.11500
      O    O143   -46.40500   -0.87400    6.94700
      N    N144   -44.55000    0.12500    6.14800
      N    N145   -47.95000   -4.08000    2.20600
      C    C146   -47.56700   -4.76400    0.97600
      C    C147   -48.02500   -3.99000   -0.24900
      O    O148   -47.31200   -3.93800   -1.25900
      C    C149   -48.14100   -6.18300    0.94900
      C    C150   -47.14700   -7.24000    1.42300
      O    O151   -47.33500   -8.42100    1.16600
      N    N152   -46.09800   -6.82100    2.12800
      N    N153   -49.21600   -3.40000   -0.18400
      C    C154   -49.73800   -2.58600   -1.27200
      C    C155   -49.25500   -1.14900   -1.20000
      O    O156   -49.28400   -0.44100   -2.21700
      C    C157   -51.27400   -2.60800   -1.27100
      N    N158   -48.82700   -0.69900   -0.01800
      C    C159   -48.16300    0.59500    0.08300
      C    C160   -46.85800    0.59100   -0.70400
      O    O161   -46.63900    1.43900   -1.57500
      C    C162   -47.92000    0.94100    1.55300
      N    N163   -45.99800   -0.39000   -0.44000
      C    C164   -44.71100   -0.48000   -1.11300
      C    C165   -44.81500   -0.89000   -2.58300
      O    O166   -43.79300   -0.88700   -3.27000
      C    C167   -43.81000   -1.45300   -0.35300
      N    N168   -46.00200   -1.22300   -3.09200
      C    C169   -46.12000   -1.67100   -4.47700
      C    C170   -45.59600   -0.61900   -5.43900
      O    O171   -44.65400   -0.87500   -6.19500
      C    C172   -47.57200   -2.01900   -4.80900
      N    N173   -46.19500    0.58400   -5.41000
      C    C174   -45.82600    1.64300   -6.35600
      C    C175   -44.36100    2.08300   -6.26300
      O    O176   -43.69800    2.15500   -7.31300
      C    C177   -46.77800    2.83000   -6.18900
      N    N178   -43.78700    2.39200   -5.09300
      C    C179   -42.36900    2.78500   -5.08900
      C    C180   -41.38900    1.65500   -5.42700
      O    O181   -40.28300    1.95600   -5.88300
      C    C182   -42.15000    3.32300   -3.66900
      C    C183   -43.25000    2.72100   -2.85900
      C    C184   -44.41100    2.58700   -3.76900
      N    N185   -41.73300    0.38200   -5.25200
      C    C186   -40.82700   -0.69200   -5.65100
      C    C187   -41.01100   -1.15200   -7.09500
      O    O188   -40.23600   -1.98400   -7.55800
      C    C189   -40.95100   -1.90600   -4.71700
      O    O190   -42.28300   -2.40700   -4.74400
      C    C191   -40.56700   -1.55600   -3.29200
      N    N192   -41.97700   -0.61800   -7.83700
      C    C193   -42.24900   -1.12800   -9.17800
      C    C194   -42.40300   -0.05900  -10.25600
      O    O195   -42.45000   -0.42100  -11.43800
      C    C196   -43.51600   -2.01000   -9.17900
      O    O197   -44.65800   -1.23300   -8.80000
      C    C198   -43.37900   -3.16700   -8.19700
      N    N199   -42.50000    1.23100   -9.90000
      C    C200   -42.46200    2.31400  -10.88200
      C    C201   -41.16700    3.09200  -10.75600
      O    O202   -41.18100    4.28800  -10.42900
      C    C203   -43.64200    3.27600  -10.72000
      N    N204   -40.04300    2.42700  -11.00000
      C    C205   -38.74500    3.07600  -10.94000
      C    C206   -38.38700    3.56400  -12.33300
      O    O207   -38.24800    2.75900  -13.26400
      C    C208   -37.66200    2.14300  -10.40000
      C    C209   -37.97500    1.74500   -8.96700
      C    C210   -36.34100    2.84600  -10.46800
      C    C211   -37.69900    0.28800   -8.68800
      N    N212   -38.25400    4.89400  -12.47300
      C    C213   -37.70600    5.47200  -13.68800
      C    C214   -36.18000    5.43500  -13.64200
      O    O215   -35.59000    5.56200  -12.56500
      C    C216   -38.18200    6.90600  -13.86400
      N    N217   -35.52700    5.23200  -14.78700
      C    C218   -34.06000    5.26700  -14.82500
      C    C219   -33.50700    6.60300  -14.34900
      O    O220   -34.01900    7.66900  -14.70800
      C    C221   -33.74400    5.02900  -16.30300
      C    C222   -34.92300    4.23500  -16.78600
      C    C223   -36.10900    4.75000  -16.04900
      N    N224   -32.44300    6.53200  -13.53300
      C    C225   -31.80200    7.74800  -13.03100
      C    C226   -31.22100    8.58800  -14.16000
      O    O227   -31.22600    9.82400  -14.08300
      C    C228   -30.70200    7.40500  -12.03700
      N    N229   -30.71400    7.94200  -15.20600
      C    C230   -30.18200    8.63000  -16.37000
      C    C231   -30.48000    7.78500  -17.59900
      O    O232   -31.03500    6.68800  -17.49900
      C    C233   -28.68900    8.89500  -16.22000
      N    N234   -30.09400    8.29100  -18.76800
      C    C235   -30.58700    7.73600  -20.02000
      C    C236   -29.60100    6.77300  -20.67400
      O    O237   -29.65900    6.54600  -21.88700
      C    C238   -30.98200    8.86100  -20.98100
      C    C239   -31.75400   10.01300  -20.32400
      C    C240   -32.09900   11.12200  -21.29900
      C    C241   -33.00600    9.48800  -19.66000
      N    N242   -28.72200    6.18000  -19.89300
      C    C243   -27.78200    5.19300  -20.38800
      C    C244   -28.30000    3.78100  -20.14000
      O    O245   -29.31000    3.56000  -19.46500
      C    C246   -26.45500    5.36500  -19.68300
      C    C247   -26.63500    5.36500  -18.20800
      O    O248   -27.02300    6.42200  -17.66000
      O    O249   -26.46500    4.29000  -17.61300
      N    N250   -27.53800    2.81200  -20.64400
      C    C251   -27.92200    1.40900  -20.56700
      C    C252   -27.79300    0.84900  -19.14900
      O    O253   -28.62300    0.03000  -18.73200
      C    C254   -27.08600    0.59100  -21.56200
      C    C255   -27.44800    0.81100  -23.04600
      C    C256   -26.86200    2.09200  -23.65300
      O    O257   -27.01300    2.28900  -24.87900
      O    O258   -26.25900    2.90400  -22.91700
      N    N259   -26.78900    1.27500  -18.38500
      C    C260   -26.69300    0.79400  -17.01200
      C    C261   -27.88400    1.28000  -16.19300
      O    O262   -28.47700    0.51900  -15.42300
      C    C263   -25.34900    1.21400  -16.38900
      C    C264   -25.29900    0.87100  -14.90400
      C    C265   -24.22000    0.55900  -17.12700
      N    N266   -28.26900    2.54600  -16.35900
      C    C267   -29.36600    3.09800  -15.56700
      C    C268   -30.68200    2.38600  -15.85400
      O    O269   -31.53400    2.26700  -14.95900
      C    C270   -29.49700    4.59700  -15.83700
      O    O271   -28.48700    5.31000  -15.15400
      N    N272   -30.85400    1.91000  -17.09500
      C    C273   -32.05300    1.17900  -17.49600
      C    C274   -32.08600   -0.23200  -16.90000
      O    O275   -33.04800   -0.60800  -16.21600
      C    C276   -32.12800    1.12500  -19.02100
      N    N277   -31.05900   -1.04200  -17.18400
      C    C278   -30.89900   -2.33900  -16.54100
      C    C279   -31.22000   -2.28400  -15.05000
      O    O280   -32.05300   -3.05400  -14.55200
      C    C281   -29.46600   -2.85200  -16.75000
      C    C282   -29.10000   -4.20500  -16.12200
      C    C283   -29.21900   -5.36400  -17.11900
      C    C284   -27.70900   -4.14700  -15.50400
      N    N285   -30.56500   -1.37000  -14.32500
      C    C286   -30.70900   -1.33700  -12.87200
      C    C287   -32.16100   -1.11900  -12.44600
      O    O288   -32.62100   -1.71500  -11.46300
      C    C289   -29.79700   -0.26300  -12.27800
      C    C290   -29.32100   -0.55600  -10.85300
      C    C291   -28.55300   -1.87900  -10.71900
      O    O292   -28.20800   -2.53300  -11.70700
      N    N293   -28.27300   -2.26600   -9.48900
      N    N294   -32.90600   -0.28400  -13.17800
      C    C295   -34.29700   -0.02700  -12.80700
      C    C296   -35.22400   -1.16000  -13.24300
      O    O297   -36.18400   -1.47900  -12.53100
      C    C298   -34.77500    1.29800  -13.40400
      N    N299   -34.95100   -1.77300  -14.40200
      C    C300   -35.74700   -2.90500  -14.85200
      C    C301   -35.67300   -4.06600  -13.86700
      O    O302   -36.69700   -4.69800  -13.57400
      C    C303   -35.29500   -3.33700  -16.24300
      N    N304   -34.48300   -4.36400  -13.33300
      C    C305   -34.41100   -5.44800  -12.36400
      C    C306   -35.26300   -5.12000  -11.14400
      O    O307   -36.22000   -5.83500  -10.82900
      C    C308   -32.96800   -5.74300  -11.94200
      C    C309   -31.94200   -6.15000  -13.02000
      C    C310   -30.47900   -5.91900  -12.60900
      C    C311   -32.15600   -7.61100  -13.41200
      N    N312   -34.96800   -4.00600  -10.46400
      C    C313   -35.65100   -3.73400   -9.20000
      C    C314   -37.16700   -3.65700   -9.36200
      O    O315   -37.88600   -3.87500   -8.38300
      C    C316   -35.10800   -2.45700   -8.57300
      C    C317   -33.85300   -2.66800   -7.77000
      C    C318   -32.59900   -2.77300   -8.39000
      C    C319   -33.91100   -2.74200   -6.38800
      C    C320   -31.44200   -2.95700   -7.63800
      C    C321   -32.74700   -2.93100   -5.63700
      C    C322   -31.51600   -3.03400   -6.26400
      N    N323   -37.67000   -3.36200  -10.57300
      C    C324   -39.11200   -3.40600  -10.81000
      C    C325   -39.58300   -4.81300  -11.11700
      O    O326   -40.66800   -5.20800  -10.68300
      C    C327   -39.55000   -2.48400  -11.96100
      O    O328   -39.14400   -3.04700  -13.21900
      C    C329   -39.05000   -1.04100  -11.77600
      N    N330   -38.79200   -5.57700  -11.87000
      C    C331   -39.09200   -6.99500  -12.00100
      C    C332   -39.12800   -7.64900  -10.62400
      O    O333   -39.98700   -8.49300  -10.34500
      C    C334   -38.06400   -7.66600  -12.91500
      N    N335   -38.23800   -7.21100   -9.73100
      C    C336   -38.12700   -7.82200   -8.41600
      C    C337   -39.30600   -7.45800   -7.51700
      O    O338   -39.79500   -8.30000   -6.75700
      C    C339   -36.80700   -7.40200   -7.78300
      C    C340   -36.40800   -8.20500   -6.58300
      C    C341   -36.48600   -7.67000   -5.31100
      C    C342   -35.94000   -9.48800   -6.72400
      C    C343   -36.12000   -8.39700   -4.21800
      C    C344   -35.57200  -10.22200   -5.64100
      C    C345   -35.66000   -9.67700   -4.38900
      O    O346   -35.29100  -10.42700   -3.29700
      N    N347   -39.75700   -6.20900   -7.55700
      C    C348   -40.88400   -5.82900   -6.73100
      C    C349   -42.18100   -6.40600   -7.24800
      O    O350   -43.09500   -6.69700   -6.46900
      N    N351   -42.27400   -6.58500   -8.56700
      C    C352   -43.38800   -7.30600   -9.16700
      C    C353   -43.39700   -8.76500   -8.72400
      O    O354   -44.42500   -9.27500   -8.25500
      C    C355   -43.30500   -7.19700  -10.68600
      O    O356   -43.79400   -5.92100  -11.08700
      C    C357   -44.11500   -8.26600  -11.35200
      N    N358   -42.25600   -9.46000   -8.86100
      C    C359   -42.21000  -10.85300   -8.41600
      C    C360   -42.45200  -10.93300   -6.91700
      O    O361   -43.09800  -11.86700   -6.44300
      C    C362   -40.88300  -11.54500   -8.76800
      C    C363   -40.62900  -11.71300  -10.28000
      C    C364   -39.57000  -12.50800  -10.74500
      C    C365   -41.42700  -11.05700  -11.24000
      C    C366   -39.30100  -12.65000  -12.12500
      C    C367   -41.16400  -11.19600  -12.62300
      C    C368   -40.10400  -11.99300  -13.06000
      N    N369   -41.98900   -9.94400   -6.15000
      C    C370   -42.33800   -9.94500   -4.73400
      C    C371   -43.84800   -9.82100   -4.53300
      O    O372   -44.39600  -10.38400   -3.57800
      C    C373   -41.60900   -8.83400   -3.97400
      C    C374   -42.12000   -8.73000   -2.55800
      C    C375   -43.18300   -7.87900   -2.23600
      C    C376   -41.59500   -9.53100   -1.55000
      C    C377   -43.69400   -7.80600   -0.95000
      C    C378   -42.09900   -9.46700   -0.24500
      C    C379   -43.15500   -8.59800    0.04500
      O    O380   -43.66700   -8.50100    1.32200
      N    N381   -44.54300   -9.09100   -5.41200
      C    C382   -45.97300   -8.87900   -5.19000
      C    C383   -46.78500  -10.15800   -5.38300
      O    O384   -47.84000  -10.29500   -4.75500
      C    C385   -46.53000   -7.75700   -6.09400
      C    C386   -46.10800   -6.32100   -5.72400
      C    C387   -46.72200   -5.80500   -4.42800
      O    O388   -47.92600   -5.92800   -4.19800
      N    N389   -45.89000   -5.20500   -3.58200
      N    N390   -46.32400  -11.09300   -6.22500
      C    C391   -46.96900  -12.40200   -6.31100
      C    C392   -46.58200  -13.30000   -5.14100
      O    O393   -47.43500  -13.97800   -4.55700
      C    C394   -46.61600  -13.11100   -7.61600
      C    C395   -46.22700  -12.22700   -8.75500
      C    C396   -45.88500  -13.03700   -9.99100
      O    O397   -46.08700  -14.26000  -10.01800
      N    N398   -45.38000  -12.36200  -11.03000
      N    N399   -45.29600  -13.34200   -4.80700
      C    C400   -44.85100  -14.21800   -3.73300
      C    C401   -45.56000  -13.86100   -2.43600
      O    O402   -46.05300  -14.74200   -1.72700
      C    C403   -43.31100  -14.17500   -3.61300
      C    C404   -42.86300  -14.69500   -2.28200
      C    C405   -42.68000  -14.99600   -4.71700
      N    N406   -45.68200  -12.56600   -2.13500
      C    C407   -46.37500  -12.15300   -0.91400
      C    C408   -47.87000  -12.46900   -0.97500
      O    O409   -48.47100  -12.85600    0.03600
      C    C410   -46.15400  -10.66500   -0.66500
      O    O411   -46.54700   -9.90900   -1.79300
      N    N412   -48.48800  -12.28500   -2.14600
      C    C413   -49.88300  -12.66000   -2.33600
      C    C414   -50.09200  -14.13300   -2.03100
      O    O415   -51.02200  -14.51200   -1.30600
      C    C416   -50.30300  -12.35500   -3.77000
      N    N417   -49.22700  -14.98100   -2.59000
      C    C418   -49.29900  -16.40900   -2.33600
      C    C419   -48.98600  -16.73900   -0.88300
      O    O420   -49.55000  -17.68900   -0.33200
      C    C421   -48.35000  -17.13500   -3.28100
      C    C422   -48.76100  -18.54100   -3.61800
      C    C423   -48.05100  -19.07100   -4.84900
      O    O424   -47.90800  -18.29800   -5.82600
      O    O425   -47.63100  -20.25300   -4.83400
      N    N426   -48.10400  -15.97000   -0.24000
      C    C427   -47.82100  -16.20700    1.17100
      C    C428   -49.03000  -15.87700    2.03200
      O    O429   -49.40700  -16.65700    2.91300
      C    C430   -46.61300  -15.39200    1.62400
      N    N431   -49.62000  -14.71200    1.80800
      C    C432   -50.76600  -14.27600    2.59800
      C    C433   -51.93400  -15.24200    2.53200
      O    O434   -52.65800  -15.40500    3.50200
      C    C435   -51.20100  -12.87600    2.19200
      C    C436   -50.21000  -11.80100    2.58100
      C    C437   -50.14300  -11.60000    4.07100
      O    O438   -51.14500  -11.32000    4.70900
      N    N439   -48.95800  -11.73700    4.63100
      N    N440   -52.13300  -15.86700    1.38200
      C    C441   -53.20600  -16.84800    1.24700
      C    C442   -53.03900  -17.97700    2.24900
      O    O443   -54.01900  -18.44800    2.83900
      C    C444   -53.24100  -17.39700   -0.17600
      N    N445   -51.79900  -18.41100    2.46800
      C    C446   -51.53400  -19.50600    3.39100
      C    C447   -51.52800  -19.03700    4.83800
      O    O448   -51.86100  -19.81400    5.73600
      C    C449   -50.21900  -20.18300    3.01100
      C    C450   -49.40600  -20.74500    4.14500
      S    S451   -48.08600  -21.77800    3.48300
      C    C452   -49.03300  -23.06200    2.65100
      N    N453   -51.18400  -17.77600    5.08600
      C    C454   -51.49900  -17.18000    6.38000
      C    C455   -53.00900  -17.14500    6.62000
      O    O456   -53.47600  -17.39400    7.74200
      C    C457   -50.90200  -15.78000    6.46700
      C    C458   -51.59500  -14.89800    7.45700
      N    N459   -51.30300  -14.91700    8.80400
      C    C460   -52.55500  -13.95600    7.29300
      C    C461   -52.05500  -14.02800    9.42800
      N    N462   -52.82600  -13.43300    8.53400
      N    N463   -53.78800  -16.85000    5.57100
      C    C464   -55.23900  -16.82400    5.70400
      C    C465   -55.79300  -18.18700    6.09000
      O    O466   -56.83600  -18.26200    6.76000
      C    C467   -55.88000  -16.34100    4.40400
      C    C468   -55.88900  -14.81600    4.27400
      O    O469   -55.64400  -14.12200    5.29200
      O    O470   -56.13700  -14.31900    3.14800
      N    N471   -55.11400  -19.27300    5.68500
      C    C472   -55.56800  -20.60500    6.07200
      C    C473   -55.28000  -20.88400    7.52700
      O    O474   -56.07200  -21.55000    8.20200
      C    C475   -54.90300  -21.69100    5.23900
      C    C476   -55.60900  -22.06100    3.99300
      S    S477   -54.33000  -22.74400    2.97100
      C    C478   -55.24000  -23.69500    1.79100
      N    N479   -54.13300  -20.43000    8.01200
      C    C480   -53.76500  -20.78400    9.37100
      C    C481   -54.60100  -20.01500   10.37400
      O    O482   -54.91400  -20.53300   11.45000
      C    C483   -52.27500  -20.54700    9.60200
      C    C484   -51.88000  -20.62100   11.03800
      C    C485   -51.91000  -21.81800   11.71900
      C    C486   -51.49700  -19.48900   11.72300
      C    C487   -51.56000  -21.88300   13.06400
      C    C488   -51.14600  -19.55700   13.06800
      C    C489   -51.17400  -20.75300   13.73100
      N    N490   -55.00200  -18.79700   10.01900
      C    C491   -55.84300  -18.01000   10.90900
      C    C492   -57.26000  -18.55500   10.90600
      O    O493   -57.94300  -18.55500   11.93600
      C    C494   -55.78900  -16.53100   10.50000
      C    C495   -57.05800  -15.81400   10.90900
      C    C496   -54.57500  -15.88400   11.13600
      N    N497   -57.71600  -19.05000    9.75200
      C    C498   -58.98800  -19.76600    9.69500
      C    C499   -58.92600  -21.04700   10.51000
      O    O500   -59.73900  -21.26900   11.41200
      C    C501   -59.34000  -20.08500    8.24700
      C    C502   -60.46800  -21.06100    8.14700
      O    O503   -61.52200  -20.85400    8.74100
      N    N504   -60.27000  -22.12100    7.39000
      N    N505   -57.94000  -21.87800   10.21100
      C    C506   -57.78700  -23.15800   10.87800
      C    C507   -57.56900  -23.03100   12.37600
      O    O508   -58.10400  -23.81100   13.14200
      C    C509   -56.62700  -23.95200   10.26100
      O    O510   -57.08900  -24.63300    9.09300
      C    C511   -56.08000  -24.96600   11.23800
      N    N512   -56.79300  -22.05000   12.79600
      C    C513   -56.58400  -21.84500   14.21500
      C    C514   -57.90400  -21.40700   14.82800
      O    O515   -58.26800  -21.82100   15.91700
      C    C516   -55.52000  -20.77900   14.43700
      C    C517   -55.27600  -20.32200   15.86900
      C    C518   -54.20600  -21.18000   16.51200
      C    C519   -54.85800  -18.86500   15.87600
      N    N520   -58.60500  -20.54600   14.10500
      C    C521   -59.89400  -20.01600   14.49900
      C    C522   -60.97700  -21.06300   14.59400
      O    O523   -61.84300  -21.00100   15.45800
      N    N524   -60.93400  -22.03100   13.69000
      C    C525   -61.93100  -23.08600   13.65400
      C    C526   -61.94500  -23.88800   14.94300
      O    O527   -63.00800  -24.25800   15.42200
      C    C528   -61.68800  -24.04400   12.48100
      C    C529   -62.28400  -23.48300   11.20300
      C    C530   -62.31500  -25.39900   12.74400
      C    C531   -62.37900  -24.51100   10.10500
      N    N532   -60.77800  -24.16800   15.50600
      C    C533   -60.74600  -24.92700   16.73500
      C    C534   -61.46300  -24.11700   17.79700
      O    O535   -61.09600  -22.98300   18.07700
      C    C536   -59.30200  -25.15700   17.15900
      O    O537   -58.48900  -25.48300   16.04800
      N    N538   -62.43900  -24.74900   18.43700
      C    C539   -63.25000  -24.11700   19.46500
      C    C540   -64.02900  -25.19000   20.20000
      O    O541   -64.81000  -25.91600   19.59100
      C    C542   -64.21200  -23.11800   18.84700
