# CIF file generated by openbabel 2.3.2, see http://openbabel.sf.net
data_I
_chemical_name_common '../proteins/pdb/5YRX.pdb'
_cell_length_a 35.11
_cell_length_b 183.75
_cell_length_c 37.25
_cell_angle_alpha 90
_cell_angle_beta 90
_cell_angle_gamma 90
_space_group_name_H-M_alt 'C 2 2 21'
_space_group_name_Hall 'C 2c 2'
loop_
    _symmetry_equiv_pos_as_xyz
    'x,y,z'
    '-x,-y,1/2+z'
    '-x,y,1/2-z'
    'x,-y,-z'
    '1/2+x,1/2+y,z'
    '1/2-x,1/2-y,1/2+z'
    '1/2-x,1/2+y,1/2-z'
    '1/2+x,1/2-y,-z'
loop_
    _atom_site_type_symbol
    _atom_site_label
    _atom_site_Cartn_x
    _atom_site_Cartn_y
    _atom_site_Cartn_z
      N    N1   -19.64300    7.64900   33.49900
      C    C2   -20.06100    8.89800   34.20900
      C    C3   -19.02600    9.49100   35.19200
      O    O4   -19.36500   10.39800   35.96200
      C    C5   -21.43300    8.72900   34.88300
      C    C6   -21.71300    7.80000   36.07100
      C    C7   -20.79100    8.06500   37.24400
      C    C8   -23.16800    7.96700   36.50000
      N    N9   -17.78300    8.99400   35.16200
      C    C10   -16.60500    9.76000   35.61500
      C    C11   -16.31600   10.86700   34.56700
      O    O12   -15.68400   11.88700   34.85400
      C    C13   -15.37800    8.84000   35.82800
      N    N14   -16.79000   10.63400   33.34400
      C    C15   -16.87800   11.65600   32.30100
      C    C16   -17.77800   12.82400   32.75600
      O    O17   -17.39700   13.98400   32.62500
      C    C18   -17.40900   11.03400   30.99900
      N    N19   -18.96300   12.49500   33.27800
      C    C20   -19.87600   13.46300   33.90000
      C    C21   -19.24700   14.19300   35.10200
      O    O22   -19.47000   15.39200   35.25300
      C    C23   -21.19300   12.78800   34.32100
      N    N24   -18.46600   13.50100   35.93500
      C    C25   -17.72400   14.15000   37.03300
      C    C26   -16.79500   15.26800   36.53600
      O    O27   -16.70400   16.30300   37.19100
      C    C28   -16.92500   13.14700   37.89200
      N    N29   -16.14000   15.09800   35.38700
      C    C30   -15.36000   16.18900   34.79000
      C    C31   -16.20800   17.31400   34.10100
      O    O32   -15.73600   17.92300   33.15800
      C    C33   -14.30100   15.63000   33.84700
      N    N34   -17.45600   17.53900   34.56500
      C    C35   -18.18600   18.85900   34.53400
      C    C36   -17.84200   19.77200   35.77100
      O    O37   -18.37100   20.89600   35.95500
      C    C38   -19.69100   18.63900   34.52000
      C    C39   -20.53100   18.78600   35.81500
      C    C40   -21.94900   18.27100   35.59200
      C    C41   -19.94100   18.14300   37.06400
      N    N42   -16.99700   19.23700   36.64100
      C    C43   -16.09400   20.01000   37.46600
      C    C44   -15.41600   21.13000   36.65600
      O    O45   -15.14500   22.18200   37.20100
      C    C46   -15.03000   19.09800   38.09200
      N    N47   -15.11300   20.91600   35.38500
      C    C48   -14.48200   21.98200   34.59600
      C    C49   -15.47600   22.87200   33.80200
      O    O50   -15.03100   23.70000   33.02400
      C    C51   -13.39000   21.42900   33.65300
      N    N52   -16.78800   22.67800   33.95400
      C    C53   -17.78200   23.61000   33.40500
      C    C54   -17.62000   24.97900   34.18100
      O    O55   -17.26500   24.98700   35.36100
      C    C56   -19.23100   23.07400   33.57300
      N    N57   -17.89800   26.07600   33.48800
      C    C58   -17.95900   27.44700   34.07400
      C    C59   -19.37600   27.77700   34.10100
      O    O60   -20.14300   27.53900   33.13300
      C    C61   -17.22200   28.43300   33.23300
      C    C62   -15.76100   28.39100   33.58100
      C    C63   -14.91800   29.29900   32.71000
      O    O64   -15.50500   30.11700   31.97300
      O    O65   -13.67300   29.15500   32.76600
      N    N66   -19.79700   28.20500   35.26600
      C    C67   -21.16800   28.48700   35.51000
      C    C68   -21.28000   30.00000   35.92500
      O    O69   -20.38100   30.51700   36.61300
      C    C70   -21.61400   27.54300   36.64400
      C    C71   -23.04600   27.72000   36.94700
      C    C72   -21.38900   26.08300   36.23900
      N    N73   -22.32500   30.67300   35.47000
      C    C74   -22.54500   32.11100   35.70900
      C    C75   -23.63800   32.35200   36.74000
      O    O76   -24.76700   31.91200   36.56400
      C    C77   -22.85300   32.76400   34.38200
      C    C78   -21.64200   32.84700   33.47700
      N    N79   -21.19200   34.01400   32.89400
      C    C80   -20.81600   31.87600   33.01700
      C    C81   -20.13200   33.76700   32.15300
      N    N82   -19.85800   32.48300   32.24500
      N    N83   -23.34400   33.04000   37.81300
      C    C84   -24.37100   33.44700   38.74200
      C    C85   -24.53400   34.96000   38.83500
      O    O86   -23.58300   35.71600   38.51100
      N    N87   -25.69800   35.39600   39.26500
      C    C88   -25.94400   36.80800   39.43000
      C    C89   -26.88400   37.09500   40.53600
      O    O90   -27.72800   36.20600   40.91500
      C    C91   -26.42400   37.45700   38.09100
      C    C92   -27.81600   37.02700   37.65700
      C    C93   -28.91100   37.70300   38.38800
      O    O94   -28.75400   38.79300   38.95500
      N    N95   -30.10100   37.13200   38.29000
      N    N96   -26.71800   38.26400   41.11400
      C    C97   -27.76400   38.83900   41.99200
      C    C98   -28.13100   40.21700   41.60800
      O    O99   -27.35200   41.05200   41.06300
      C    C100   -27.38000   38.76900   43.47300
      N    N101   -29.36400   40.58800   41.97100
      C    C102   -29.77200   41.93000   41.69700
      C    C103   -30.02600   42.22200   40.21700
      O    O104   -29.95300   43.36000   39.81700
      N    N105   -30.26500   41.19900   39.39800
      C    C106   -30.36300   41.43800   37.96200
      C    C107   -29.10800   41.88700   37.23600
      O    O108   -29.20800   42.60200   36.21700
      N    N109   -28.00500   41.41700   37.76000
      C    C110   -26.68700   41.66100   37.19300
      C    C111   -25.88100   42.66900   37.98300
      O    O112   -24.81200   43.09300   37.47500
      N    N113   -26.39900   43.17600   39.09900
      C    C114   -25.58200   44.10000   39.89500
      C    C115   -24.25700   43.45800   40.38100
      O    O116   -23.19800   44.16700   40.44900
      C    C117   -26.36600   44.70700   41.04900
      C    C118   -27.45200   45.70000   40.63500
      C    C119   -28.40900   45.92500   41.78100
      C    C120   -26.77900   46.95300   40.26500
      N    N121   -24.29800   42.14600   40.67600
      C    C122   -23.09500   41.34500   40.95600
      C    C123   -23.23500   40.12700   40.13700
      O    O124   -24.34700   39.48300   40.10400
      C    C125   -22.85200   41.03200   42.46700
      C    C126   -21.60000   40.20100   42.54800
      C    C127   -22.72300   42.34000   43.28600
      N    N128   -22.19400   39.79600   39.38500
      C    C129   -22.14800   38.61500   38.57500
      C    C130   -20.89800   37.86100   39.01400
      O    O131   -19.81800   38.42100   39.40100
      C    C132   -22.03900   38.99800   37.06700
      C    C133   -23.28700   39.67600   36.54400
      C    C134   -23.30200   40.11000   35.07100
      C    C135   -22.31600   41.11200   34.71900
      N    N136   -22.52700   41.43100   33.26900
      N    N137   -21.01100   36.53600   39.01800
      C    C138   -19.86400   35.70500   39.33700
      C    C139   -19.75300   34.54700   38.30400
      O    O140   -20.77600   34.15900   37.65100
      C    C141   -19.86400   35.13600   40.76000
      C    C142   -19.95100   36.17800   41.82300
      C    C143   -20.97400   34.13300   40.95200
      N    N144   -18.52500   34.14500   38.13400
      C    C145   -18.14800   32.95000   37.34100
      C    C146   -17.42600   31.93900   38.23500
      O    O147   -16.39200   32.21800   38.84600
      C    C148   -17.37500   33.31900   36.09700
      C    C149   -17.11100   32.01000   35.30700
      C    C150   -18.19600   34.20500   35.22200
      N    N151   -17.97000   30.70700   38.28000
      C    C152   -17.49300   29.68600   39.16200
      C    C153   -17.36100   28.39400   38.34200
      O    O154   -18.16400   28.15800   37.41100
      C    C155   -18.39800   29.48100   40.37700
      C    C156   -18.59400   30.81200   41.13500
      C    C157   -19.68300   28.80700   39.91400
      N    N158   -16.32500   27.63700   38.61100
      C    C159   -16.18700   26.27700   38.00100
      C    C160   -17.13000   25.27800   38.68700
      O    O161   -17.45800   25.44500   39.84200
      C    C162   -14.72900   25.78900   38.12200
      C    C163   -13.87000   26.40300   37.05300
      C    C164   -12.47300   25.84300   36.99900
      C    C165   -11.87600   26.10700   35.61900
      N    N166   -12.52000   25.25900   34.57100
      N    N167   -17.54600   24.20500   37.99000
      C    C168   -18.34800   23.14300   38.65700
      C    C169   -17.69300   22.63100   39.94900
      O    O170   -18.35500   22.28500   40.93500
      N    N171   -16.37200   22.67100   39.95400
      C    C172   -15.56200   22.36400   41.13600
      C    C173   -15.83100   23.25300   42.36400
      O    O174   -15.45000   22.88100   43.47500
      C    C175   -14.08200   22.49600   40.75600
      O    O176   -13.63200   23.86200   40.82600
      N    N177   -16.39900   24.46100   42.16500
      C    C178   -16.58800   25.39900   43.26800
      C    C179   -15.61900   26.58900   43.22000
      O    O180   -15.82400   27.59400   43.87900
      N    N181   -14.54700   26.44300   42.46800
      C    C182   -13.52300   27.45000   42.38500
      C    C183   -14.17000   28.75100   41.76600
      O    O184   -14.81800   28.68400   40.72200
      C    C185   -12.39000   26.92800   41.53200
      C    C186   -11.26100   27.90700   41.22700
      C    C187   -10.34000   27.40600   40.09900
      O    O188   -10.57500   26.31500   39.50200
      O    O189    -9.35700   28.12100   39.79700
      N    N190   -14.04000   29.87400   42.44800
      C    C191   -14.55500   31.13200   41.96000
      C    C192   -13.50800   31.69300   41.04200
      O    O193   -12.41400   31.90300   41.47500
      C    C194   -14.81300   32.12400   43.11000
      C    C195   -15.04700   33.51700   42.60500
      C    C196   -15.97200   31.67100   43.96700
      N    N197   -13.84500   31.91700   39.79100
      C    C198   -12.90000   32.49500   38.89500
      C    C199   -13.04200   33.95600   38.52100
      O    O200   -12.07800   34.53300   38.15200
      C    C201   -12.63800   31.64600   37.67300
      C    C202   -13.81300   31.67300   36.76100
      C    C203   -12.24100   30.21800   38.07300
      C    C204   -13.70200   30.65300   35.66400
      N    N205   -14.23700   34.52100   38.62900
      C    C206   -14.37900   35.94200   38.41500
      C    C207   -15.52000   36.57400   39.18700
      O    O208   -16.42900   35.90400   39.53100
      N    N209   -15.40800   37.86500   39.47600
      C    C210   -16.48200   38.53900   40.12300
      C    C211   -16.57900   39.87400   39.41800
      O    O212   -15.51300   40.48300   39.21900
      C    C213   -16.19300   38.80900   41.63000
      C    C214   -17.32400   39.65300   42.20800
      C    C215   -16.16600   37.46800   42.41600
      N    N216   -17.78700   40.33000   39.05500
      C    C217   -17.94700   41.56000   38.32600
      C    C218   -18.99000   42.40100   39.04900
      O    O219   -20.11800   41.93700   39.21500
      C    C220   -18.44200   41.30400   36.87700
      O    O221   -17.48800   40.47000   36.19600
      C    C222   -18.52100   42.61400   36.14900
      N    N223   -18.60600   43.58700   39.48900
      C    C224   -19.46800   44.33000   40.31000
      C    C225   -19.84000   45.59700   39.53300
      O    O226   -18.98500   46.35900   39.13600
      C    C227   -18.75900   44.63900   41.63300
      C    C228   -18.47800   43.38300   42.44600
      C    C229   -19.62400   45.57200   42.46300
      C    C230   -17.47200   43.65500   43.48400
      N    N231   -21.12200   45.88300   39.44200
      C    C232   -21.63200   47.10100   38.84500
      C    C233   -21.32100   48.32700   39.72100
      O    O234   -21.50600   48.30200   40.92200
      C    C235   -23.14500   46.97400   38.60600
      C    C236   -23.70500   48.12200   37.85000
      O    O237   -23.97100   49.18700   38.42700
      O    O238   -23.82900   48.03000   36.58100
      N    N239   -20.93300   49.42800   39.09000
      C    C240   -20.55400   50.63600   39.83200
      C    C241   -21.63800   51.14000   40.74500
      O    O242   -21.36900   51.77500   41.81200
      C    C243   -20.38000   51.67600   38.68300
      C    C244   -19.92800   50.88600   37.58000
      C    C245   -20.59400   49.55600   37.65400
      N    N246   -22.90700   50.85800   40.40400
      C    C247   -24.00100   51.40500   41.25100
      C    C248   -23.90200   50.98400   42.70900
      O    O249   -24.31000   51.73000   43.60000
      C    C250   -25.34300   50.93600   40.70900
      C    C251   -26.52100   51.66100   41.36300
      C    C252   -27.80700   51.04000   40.94600
      C    C253   -28.16000   51.37400   39.52800
      N    N254   -23.54200   49.74500   42.97400
      C    C255   -23.41100   49.24000   44.29500
      C    C256   -22.07000   49.39500   44.99000
      O    O257   -21.95200   48.95200   46.17700
      C    C258   -23.87500   47.79800   44.36300
      C    C259   -25.41500   47.77700   44.13500
      C    C260   -23.10500   46.91300   43.41000
      N    N261   -21.13800   50.08200   44.35000
      C    C262   -19.87300   50.35000   44.96300
      C    C263   -20.00000   51.66200   45.71400
      O    O264   -19.53800   52.66100   45.29000
      C    C265   -18.70700   50.29900   43.99000
      C    C266   -17.40000   50.49000   44.70500
      C    C267   -18.74100   48.99100   43.24400
      N    N268   -20.75300   51.63100   46.80500
      C    C269   -21.05600   52.84200   47.55300
      C    C270   -20.68300   52.62000   49.00100
      O    O271   -21.22900   51.73600   49.66200
      C    C272   -22.54000   53.19000   47.43500
      C    C273   -22.96400   54.27200   48.40800
      O    O274   -22.07600   54.93900   48.98100
      O    O275   -24.18400   54.45600   48.60100
      N    N276   -19.74300   53.41300   49.49700
      C    C277   -19.21900   53.16300   50.83800
      C    C278   -20.22900   53.47300   51.98100
      O    O279   -20.05300   53.02700   53.09200
      C    C280   -17.93200   54.01700   50.88300
      C    C281   -18.13900   55.07200   49.86200
      C    C282   -18.98400   54.47800   48.77900
      N    N283   -21.33800   54.11000   51.66400
      C    C284   -22.41500   54.32400   52.61900
      C    C285   -23.36400   53.12500   52.67900
      O    O286   -24.27100   53.12400   53.52400
      C    C287   -23.25100   55.51800   52.21900
      C    C288   -22.45900   56.86600   52.33000
      O    O289   -21.49400   56.90800   53.09000
      O    O290   -22.82700   57.80600   51.61400
      N    N291   -23.24600   52.14700   51.73600
      C    C292   -24.07400   50.94800   51.83000
      C    C293   -23.29400   49.67800   51.45300
      O    O294   -23.58100   48.99200   50.44100
      C    C295   -25.36600   51.04700   51.03000
      C    C296   -26.33900   49.98300   51.40300
      O    O297   -26.05000   49.08800   52.23100
      O    O298   -27.39400   49.96000   50.79500
      N    N299   -22.26700   49.39000   52.23700
      C    C300   -21.44700   48.18000   51.94400
      C    C301   -22.29000   46.97200   52.14400
      O    O302   -22.08200   45.93100   51.53700
      C    C303   -20.16700   48.21600   52.78400
      C    C304   -19.37800   49.51700   52.40100
      C    C305   -19.41900   46.97400   52.59600
      C    C306   -18.15300   49.84400   53.26000
      N    N307   -23.24500   47.06200   53.06300
      C    C308   -24.05600   45.89900   53.42400
      C    C309   -24.73500   45.28000   52.20400
      O    O310   -24.71800   44.06400   52.00900
      C    C311   -25.10400   46.28100   54.47100
      C    C312   -25.91700   45.10700   54.99200
      C    C313   -25.05400   44.04500   55.64400
      O    O314   -23.91700   44.36700   56.04900
      O    O315   -25.51200   42.88800   55.75200
      N    N316   -25.33100   46.14300   51.39400
      C    C317   -26.06200   45.76300   50.17900
      C    C318   -25.15900   45.04700   49.19000
      O    O319   -25.48700   43.98300   48.65200
      C    C320   -26.71000   46.98200   49.52000
      O    O321   -27.89600   47.30200   50.28900
      C    C322   -27.12200   46.61600   48.11200
      N    N323   -23.98700   45.61800   49.01900
      C    C324   -22.92300   45.01000   48.16900
      C    C325   -22.56900   43.60000   48.65500
      O    O326   -22.55000   42.65100   47.86900
      C    C327   -21.72000   45.93400   48.17700
      C    C328   -20.48500   45.38700   47.47500
      C    C329   -20.73200   45.04400   46.01900
      C    C330   -19.31700   46.30300   47.58200
      N    N331   -22.29000   43.46200   49.94500
      C    C332   -21.98700   42.18800   50.52700
      C    C333   -23.10600   41.17600   50.28400
      O    O334   -22.85000   40.07900   49.87100
      C    C335   -21.72500   42.32200   52.03700
      C    C336   -20.52700   43.16200   52.37900
      C    C337   -20.37000   43.42400   53.86900
      O    O338   -21.24500   43.12000   54.67100
      N    N339   -19.28200   43.97900   54.21100
      N    N340   -24.33900   41.58500   50.57600
      C    C341   -25.47600   40.70000   50.34100
      C    C342   -25.61200   40.24100   48.85200
      O    O343   -25.93600   39.08200   48.59300
      C    C344   -26.70400   41.39300   50.80100
      C    C345   -26.81900   41.48400   52.33300
      O    O346   -26.10800   40.73800   53.05700
      O    O347   -27.62600   42.29800   52.80200
      N    N348   -25.33900   41.16000   47.93900
      C    C349   -25.38800   40.78200   46.51700
      C    C350   -24.31300   39.80200   46.09400
      O    O351   -24.55100   38.93400   45.21900
      C    C352   -25.36300   42.06100   45.64900
      C    C353   -26.56900   42.94300   45.65600
      C    C354   -26.34800   44.31400   45.03000
      C    C355   -27.73000   42.27600   44.94400
      N    N356   -23.12900   39.89700   46.72300
      C    C357   -22.07500   38.96500   46.42500
      C    C358   -22.44400   37.60600   46.95000
      O    O359   -22.32900   36.57700   46.21000
      C    C360   -20.72100   39.43500   46.98500
      C    C361   -20.24100   40.71000   46.30400
      C    C362   -19.73000   38.21400   46.88900
      C    C363   -19.25000   41.58200   47.10900
      N    N364   -22.92400   37.52400   48.17700
      C    C365   -23.37000   36.24900   48.69800
      C    C366   -24.50600   35.67700   47.81600
      O    O367   -24.54000   34.41400   47.49000
      C    C368   -23.93600   36.42800   50.17700
      C    C369   -24.62400   35.16300   50.68300
      C    C370   -22.77400   36.78700   51.11300
      N    N371   -25.47000   36.52000   47.49000
      C    C372   -26.57500   36.16800   46.60600
      C    C373   -26.12100   35.62000   45.24300
      O    O374   -26.61600   34.61200   44.74900
      N    N375   -25.16500   36.26700   44.59900
      C    C376   -24.63100   35.81200   43.33300
      C    C377   -23.89500   34.49100   43.48100
      O    O378   -24.00500   33.57300   42.55600
      C    C379   -23.73500   36.93200   42.73000
      N    N380   -23.17000   34.29200   44.58800
      C    C381   -22.53600   32.98600   44.87700
      C    C382   -22.53700   32.99100   44.83700
      C    C383   -23.56700   31.89100   45.06600
      O    O384   -23.44200   30.78000   44.49000
      C    C385   -21.57000   33.08800   46.07100
      C    C386   -21.46800   33.10900   45.93500
      C    C387   -20.36800   33.97800   45.79300
      C    C388   -20.29200   33.97500   45.47900
      S    S389   -19.26700   33.35100   44.51500
      S    S390   -19.09000   34.20700   46.78200
      C    C391   -17.96100   34.52200   44.82600
      C    C392   -17.79800   35.21500   46.04000
      N    N393   -24.64800   32.23500   45.74800
      C    C394   -25.76200   31.28900   45.91200
      C    C395   -26.41000   30.88800   44.61100
      O    O396   -26.66000   29.69300   44.38700
      C    C397   -26.76600   31.85600   46.92500
      C    C398   -27.99200   30.96600   47.13000
      C    C399   -28.95000   31.44300   48.23200
      N    N400   -28.48900   32.62300   48.97900
      C    C401   -28.95300   33.88100   48.82500
      N    N402   -29.91700   34.16900   47.92600
      N    N403   -28.44000   34.87100   49.58200
      N    N404   -26.65400   31.87500   43.73900
      C    C405   -27.14700   31.66300   42.41000
      C    C406   -26.27800   30.71000   41.61600
      O    O407   -26.78000   29.73100   40.94600
      C    C408   -27.45900   33.02600   41.72600
      C    C409   -28.11400   32.84600   40.35000
      O    O410   -29.15100   32.13700   40.32800
      O    O411   -27.53000   33.24300   39.31600
      N    N412   -24.97500   30.91000   41.66200
      C    C413   -24.06500   30.08600   40.91300
      C    C414   -24.12100   28.69100   41.45000
      O    O415   -24.12500   27.73400   40.66600
      C    C416   -22.65900   30.59700   41.00500
      N    N417   -24.13700   28.56300   42.76100
      C    C418   -24.12700   27.22600   43.37300
      C    C419   -25.38100   26.46700   42.97000
      O    O420   -25.31300   25.28000   42.62100
      C    C421   -23.99900   27.32200   44.88800
      O    O422   -24.84700   26.35600   45.46600
      N    N423   -26.51000   27.15100   42.94900
      C    C424   -27.75100   26.53400   42.53700
      C    C425   -27.76400   26.18400   41.05000
      O    O426   -28.25800   25.10100   40.67400
      C    C427   -29.01600   27.19200   43.13700
      C    C428   -29.34700   28.66500   42.94200
      C    C429   -30.01500   29.25200   44.20200
      O    O430   -30.28800   28.52200   45.16300
      N    N431   -30.23100   30.57200   44.22200
      N    N432   -27.06700   26.96100   40.22700
      C    C433   -26.83200   26.61700   38.81700
      C    C434   -25.99900   25.33700   38.65600
      O    O435   -26.31100   24.48500   37.81400
      C    C436   -26.15700   27.76300   38.00700
      C    C437   -26.91400   29.06200   37.71300
      C    C438   -28.35700   28.87100   37.35000
      O    O439   -28.70800   27.93300   36.63000
      N    N440   -29.21900   29.79100   37.82200
      N    N441   -24.94200   25.20200   39.44400
      C    C442   -24.04700   24.08200   39.32800
      C    C443   -24.86400   22.83200   39.58000
      O    O444   -24.74700   21.87500   38.82500
      C    C445   -22.89300   24.16100   40.33100
      C    C446   -22.13800   22.82400   40.42100
      C    C447   -21.98700   25.28500   39.90100
      N    N448   -25.70100   22.90400   40.61100
      C    C449   -26.59200   21.82900   41.00800
      C    C450   -27.63500   21.50500   39.93900
      O    O451   -27.89000   20.32000   39.68700
      C    C452   -27.25800   22.16500   42.34400
      O    O453   -26.26800   22.18000   43.36600
      C    C454   -28.32800   21.17000   42.72100
      N    N455   -28.22600   22.52200   39.30800
      C    C456   -29.15600   22.32300   38.19100
      C    C457   -28.45800   21.65200   36.98500
      O    O458   -29.04100   20.74200   36.38000
      C    C459   -29.87800   23.63000   37.75800
      N    N460   -27.23600   22.07100   36.63000
      C    C461   -26.52100   21.44400   35.50900
      C    C462   -26.04200   20.00600   35.88300
      O    O463   -26.02000   19.10300   35.01200
      C    C464   -25.42900   22.36600   34.89400
      C    C465   -23.98900   22.25600   35.39800
      S    S466   -22.69700   22.81100   34.21100
      C    C467   -23.55800   24.09200   33.27100
      N    N468   -25.73300   19.78400   37.16800
      C    C469   -25.35800   18.45200   37.66100
      C    C470   -26.54500   17.50000   37.59400
      O    O471   -26.37700   16.35500   37.16500
      C    C472   -24.80600   18.51200   39.07900
      N    N473   -27.73500   17.95800   38.00200
      C    C474   -28.98300   17.23000   37.73000
      C    C475   -29.11000   17.29900   36.18700
      O    O476   -29.89800   18.04600   35.64800
      C    C477   -30.16500   17.86100   38.48000
      N    N478   -28.25500   16.53700   35.50100
      C    C479   -28.32300   16.25200   34.06700
      C    C480   -27.46000   14.97900   33.98300
      O    O481   -26.31700   15.01000   33.48700
      C    C482   -27.78900   17.35500   33.14700
      N    N483   -28.03100   13.88400   34.51400
      C    C484   -27.34100   12.61800   34.76900
      C    C485   -26.59600   12.66600   36.10300
      O    O486   -27.21400   12.70000   37.16600
      C    C487   -26.37800   12.26200   33.62900
