# CIF file generated by openbabel 2.3.2, see http://openbabel.sf.net
data_I
_chemical_name_common '../proteins/pdb/6C4V.pdb'
_cell_length_a 58.189
_cell_length_b 58.189
_cell_length_c 101.683
_cell_angle_alpha 90
_cell_angle_beta 90
_cell_angle_gamma 120
_space_group_name_H-M_alt 'P 61 2 2'
_space_group_name_Hall 'P 61 2 (0 0 -1)'
loop_
    _symmetry_equiv_pos_as_xyz
    'x,y,z'
    '-y,x-y,1/3+z'
    '-x+y,-x,2/3+z'
    '-x,-y,1/2+z'
    'y,-x+y,5/6+z'
    'x-y,x,1/6+z'
    'y,x,1/3-z'
    'x-y,-y,-z'
    '-x,-x+y,2/3-z'
    '-y,-x,5/6-z'
    '-x+y,y,1/2-z'
    'x,x-y,1/6-z'
loop_
    _atom_site_type_symbol
    _atom_site_label
    _atom_site_Cartn_x
    _atom_site_Cartn_y
    _atom_site_Cartn_z
      N    N1    44.04200   24.85500   41.90400
      C    C2    42.90500   25.82200   41.83600
      C    C3    42.70700   26.49300   43.20600
      O    O4    42.86100   25.84300   44.25000
      C    C5    41.62700   25.10100   41.38100
      C    C6    40.52600   26.05800   40.94300
      O    O7    40.76200   27.24700   40.71400
      N    N8    39.31500   25.53100   40.80100
      N    N9    42.36200   27.78500   43.18700
      C    C10    42.20500   28.58900   44.40800
      C    C11    40.82700   29.27000   44.47600
      O    O12    40.27100   29.66100   43.45200
      C    C13    43.32800   29.66200   44.48900
      C    C14    43.19700   30.51900   45.74800
      C    C15    44.70300   28.99500   44.43400
      N    N16    40.29200   29.40000   45.69200
      C    C17    38.99800   30.05900   45.92600
      C    C18    39.07600   31.54700   45.58500
      O    O19    40.05200   32.21800   45.92700
      C    C20    38.59300   29.94800   47.39800
      C    C21    38.32700   28.51500   47.84900
      O    O22    37.84000   27.67100   47.05500
      O    O23    38.58100   28.24200   49.04100
      N    N24    38.05300   32.06800   44.92500
      C    C25    38.01600   33.48500   44.58700
      C    C26    37.02300   34.17700   45.50700
      O    O27    35.82800   33.89200   45.44200
      C    C28    37.63300   33.70000   43.11600
      C    C29    37.53600   35.19100   42.79800
      C    C30    38.66300   33.01400   42.22200
      N    N31    37.50000   35.08900   46.37000
      C    C32    36.55000   35.75400   47.25500
      C    C33    35.65500   36.73200   46.48900
      O    O34    35.97300   37.10400   45.34900
      C    C35    37.44200   36.49300   48.24900
      C    C36    38.71700   36.73400   47.51300
      C    C37    38.87600   35.60600   46.53600
      N    N38    34.53900   37.14700   47.10600
      C    C39    33.63800   38.08800   46.42700
      C    C40    34.35600   39.39400   46.07900
      O    O41    35.15100   39.89900   46.87300
      C    C42    32.49300   38.30600   47.42100
      C    C43    32.72900   37.40600   48.57100
      C    C44    34.06900   36.75600   48.44500
      N    N45    34.05200   39.91800   44.89500
      C    C46    34.73600   41.07600   44.33300
      C    C47    34.00700   42.40900   44.47100
      O    O48    34.65900   43.45100   44.56800
      C    C49    35.02500   40.78900   42.85700
      C    C50    35.85900   39.52500   42.67300
      C    C51    35.99200   39.09800   41.22700
      N    N52    34.70800   38.70100   40.66100
      C    C53    34.55400   38.12100   39.47300
      N    N54    35.61000   37.85000   38.70400
      N    N55    33.34100   37.79800   39.05200
      N    N56    32.67400   42.39300   44.45100
      C    C57    31.90300   43.63500   44.58700
      C    C58    30.75500   43.46200   45.56800
      O    O59    30.58500   42.38800   46.15300
      C    C60    31.41200   44.14100   43.21900
      C    C61    30.34400   43.26100   42.58800
      O    O62    30.12800   42.11000   43.02000
      O    O63    29.70700   43.73600   41.62100
      N    N64    29.97500   44.52000   45.74400
      C    C65    28.84800   44.50200   46.66900
      C    C66    27.89100   43.33500   46.39900
      O    O67    27.48900   42.64200   47.33100
      C    C68    28.10300   45.82600   46.61100
      N    N69    27.56200   43.11300   45.12300
      C    C70    26.63600   42.04400   44.71600
      C    C71    27.15700   40.66900   45.11600
      O    O72    26.42400   39.84800   45.68300
      C    C73    26.39600   42.10000   43.21900
      N    N74    28.43300   40.42000   44.84300
      C    C75    29.02500   39.14100   45.22100
      C    C76    29.14600   38.95300   46.73000
      O    O77    28.91300   37.84900   47.21600
      C    C78    30.35100   38.90900   44.51900
      C    C79    30.14300   38.65100   43.03900
      C    C80    31.42700   38.50900   42.25300
      O    O81    32.51800   38.79500   42.79500
      O    O82    31.33900   38.11500   41.07200
      N    N83    29.49900   40.01500   47.45500
      N    N84    29.49600   40.01500   47.45800
      C    C85    29.62600   39.94200   48.91600
      C    C86    29.63600   39.93800   48.91900
      C    C87    28.30400   39.60900   49.59700
      C    C88    28.30800   39.61900   49.60900
      O    O89    28.24900   38.72200   50.45300
      O    O90    28.25500   38.74900   50.48000
      C    C91    30.17800   41.25000   49.49700
      C    C92    30.22800   41.23400   49.49700
      C    C93    31.66600   41.47800   49.25000
      C    C94    31.66100   41.52800   49.05500
      C    C95    32.20500   42.65100   50.06100
      C    C96    32.25700   42.75900   49.73100
      N    N97    31.50800   43.90800   49.79700
      N    N98    32.82400   42.43700   51.03700
      C    C99    31.87600   44.79500   48.87900
      C    C100    33.36800   43.32900   51.86100
      N    N101    32.93800   44.56800   48.11800
      N    N102    33.42000   44.61000   51.52500
      N    N103    31.17700   45.90900   48.72000
      N    N104    33.86300   42.93800   53.02600
      N    N105    27.23800   40.30800   49.20900
      C    C106    25.92900   40.06600   49.80800
      C    C107    25.40300   38.67100   49.44000
      O    O108    24.79800   38.01300   50.27500
      C    C109    24.88800   41.16500   49.48100
      C    C110    24.44400   41.11800   48.02800
      C    C111    23.67400   41.03300   50.38300
      N    N112    25.67800   38.21400   48.21700
      C    C113    25.19200   36.90500   47.77300
      C    C114    25.94500   35.79000   48.52000
      O    O115    25.33600   34.86800   49.04900
      C    C116    25.31700   36.73500   46.23700
      O    O117    24.58000   37.78000   45.56700
      C    C118    24.75800   35.42600   45.80200
      N    N119    27.27200   35.90900   48.56000
      C    C120    28.15300   34.96000   49.24600
      C    C121    27.77000   34.85700   50.72200
      O    O122    27.57000   33.75600   51.25700
      C    C123    29.60200   35.45300   49.10200
      C    C124    30.65200   34.49500   49.60300
      C    C125    31.03500   34.48900   50.93900
      C    C126    31.30100   33.63300   48.71600
      C    C127    32.03100   33.62700   51.39100
      C    C128    32.28700   32.76800   49.15700
      C    C129    32.65600   32.76500   50.49600
      N    N130    27.64200   36.01300   51.36400
      C    C131    27.30800   36.09300   52.78000
      C    C132    25.92400   35.53800   53.09000
      O    O133    25.74100   34.82400   54.08300
      C    C134    27.40200   37.53000   53.25800
      N    N135    24.94900   35.84700   52.23700
      C    C136    23.59200   35.36400   52.47800
      C    C137    23.53000   33.84000   52.38800
      O    O138    22.88400   33.19300   53.21100
      C    C139    22.56200   36.03500   51.55100
      O    O140    22.62800   37.45500   51.71600
      C    C141    21.17200   35.57900   51.89400
      N    N142    24.20200   33.27300   51.39100
      C    C143    24.25500   31.82400   51.24900
      C    C144    24.84900   31.18600   52.51300
      O    O145    24.30000   30.23100   53.07400
      C    C146    25.11200   31.42900   50.04700
      C    C147    25.06500   29.96100   49.78500
      C    C148    25.72000   28.97500   50.46300
      C    C149    24.33300   29.31500   48.74200
      N    N150    25.41900   27.75200   49.92700
      C    C151    24.56100   27.92700   48.87200
      C    C152    23.49300   29.77500   47.72500
      C    C153    23.98800   26.98600   48.01100
      C    C154    22.92300   28.84000   46.85900
      C    C155    23.17400   27.45000   47.01800
      N    N156    25.98000   31.72200   52.94300
      C    C157    26.68000   31.21300   54.11600
      C    C158    25.84200   31.33500   55.38300
      O    O159    25.81800   30.42900   56.21000
      C    C160    27.98900   31.95500   54.31200
      N    N161    25.19400   32.47300   55.54500
      C    C162    24.37400   32.72100   56.74500
      C    C163    23.19000   31.75400   56.84500
      O    O164    22.96200   31.13800   57.87100
      C    C165    23.92100   34.19700   56.78200
      C    C166    25.13400   35.08700   57.11900
      C    C167    22.83200   34.41800   57.83500
      C    C168    24.90700   36.56600   56.85300
      N    N169    22.45900   31.60400   55.75500
      C    C170    21.28600   30.73200   55.75900
      C    C171    21.62700   29.24300   55.87900
      O    O172    21.01800   28.53700   56.66600
      C    C173    20.41500   30.99800   54.51500
      C    C174    19.26100   29.99900   54.43500
      C    C175    19.89900   32.43500   54.55800
      N    N176    22.61500   28.77900   55.12700
      C    C177    22.97200   27.36400   55.13100
      C    C178    23.89900   26.99000   56.27100
      O    O179    24.01800   25.82000   56.59800
      C    C180    23.69300   26.97700   53.82900
      O    O181    24.94900   27.67100   53.73700
      C    C182    22.82900   27.31300   52.60900
      N    N183    24.56800   27.98300   56.85600
      C    C184    25.54900   27.73900   57.91000
      C    C185    26.90200   27.26000   57.38500
      O    O186    27.76500   26.89000   58.17200
      N    N187    27.09200   27.26900   56.06100
      C    C188    28.35300   26.85400   55.44900
      C    C189    28.75100   27.79100   54.30800
      O    O190    27.96500   28.02400   53.37900
      C    C191    28.25300   25.43000   54.90800
      C    C192    29.59400   24.88200   54.41900
      C    C193    29.53500   23.38100   54.15500
      C    C194    30.89200   22.84300   53.72300
      N    N195    31.30500   23.40700   52.40400
      N    N196    29.97000   28.31400   54.37100
      C    C197    30.46300   29.20000   53.32100
      C    C198    30.54000   28.48700   51.96500
      O    O199    30.90800   27.31900   51.91300
      C    C200    31.87000   29.71400   53.66800
      O    O201    32.39200   30.45700   52.57500
      N    N202    30.19400   29.18800   50.86700
      C    C203    30.37000   28.58700   49.53200
      C    C204    31.84700   28.36500   49.16400
      O    O205    32.12700   27.68600   48.18600
      C    C206    29.76900   29.62900   48.58100
      C    C207    28.92900   30.52200   49.41700
      C    C208    29.44800   30.46300   50.81200
      N    N209    32.76700   28.95400   49.93300
      C    C210    34.20900   28.81500   49.69000
      C    C211    34.74600   29.91400   48.79200
      O    O212    35.69200   30.61300   49.13700
      N    N213    34.14800   30.05400   47.62200
      C    C214    34.55600   31.07200   46.67100
      C    C215    33.41300   31.30900   45.72400
      O    O216    32.39600   30.60200   45.78900
      N    N217    33.57400   32.29300   44.84300
      C    C218    32.50300   32.66500   43.92000
      C    C219    32.34100   31.71900   42.73000
      O    O220    31.29800   31.75000   42.06900
      C    C221    32.60000   34.13800   43.45300
      C    C222    33.84100   34.38500   42.58500
      C    C223    32.56200   35.07500   44.66100
      C    C224    33.92000   35.78400   42.01300
      N    N225    33.34000   30.88100   42.45200
      C    C226    33.21100   29.92400   41.34100
      C    C227    32.98200   28.49000   41.79900
      O    O228    32.69900   27.63100   40.97700
      C    C229    34.41900   29.98800   40.39500
      C    C230    34.62600   31.34100   39.77500
      C    C231    33.68800   31.86100   38.88700
      C    C232    35.76000   32.08900   40.06100
      C    C233    33.87800   33.11000   38.30900
      C    C234    35.95400   33.33800   39.48700
      C    C235    35.00900   33.84900   38.61000
      N    N236    33.06200   28.23000   43.10500
      C    C237    32.86400   26.87800   43.60700
      C    C238    31.45500   26.36300   43.32800
      O    O239    30.48100   27.11700   43.44000
      C    C240    33.09800   26.81600   45.12500
      C    C241    34.45600   27.35700   45.53400
      O    O242    34.84800   28.45200   45.12700
      N    N243    35.17100   26.60100   46.34900
      N    N244    31.35800   25.07900   42.97000
      C    C245    30.06300   24.43300   42.79500
      C    C246    29.30100   24.51800   44.11300
      O    O247    29.85400   24.28100   45.17800
      C    C248    30.22000   22.97000   42.37800
      C    C249    30.38100   22.77800   40.87700
      C    C250    29.07200   23.00700   40.13100
      O    O251    29.05600   23.80100   39.16300
      O    O252    28.04600   22.41400   40.54200
      N    N253    28.03500   24.88500   44.03500
      C    C254    27.22100   25.01900   45.23600
      C    C255    26.52500   23.71100   45.58500
      O    O256    26.10800   22.97500   44.69000
      C    C257    26.19900   26.12600   45.03100
      C    C258    26.78700   27.52400   44.88400
      C    C259    25.73400   28.48500   44.33500
      C    C260    27.37100   28.01800   46.20100
      N    N261    26.38500   23.42600   46.89300
      C    C262    25.68600   22.23300   47.30800
      C    C263    24.18400   22.38500   47.07400
      O    O264    23.68900   23.51500   46.96100
      C    C265    25.97900   22.15400   48.80300
      C    C266    26.19300   23.55500   49.23000
      C    C267    26.81400   24.24800   48.04800
      N    N268    23.47500   21.25900   47.02900
      C    C269    22.03800   21.28100   46.78800
      C    C270    21.32000   21.76600   48.05200
      O    O271    21.71000   21.41900   49.16400
      C    C272    21.54400   19.90000   46.36400
      C    C273    20.12000   19.89800   45.82700
      C    C274    19.61800   18.49400   45.52500
      N    N275    20.46200   17.81000   44.54300
      C    C276    20.40600   18.00400   43.22700
      N    N277    19.56000   18.89000   42.69700
      N    N278    21.22200   17.32700   42.43300
      N    N279    20.31500   22.61400   47.87600
      C    C280    19.53800   23.14200   48.99400
      C    C281    18.14400   22.56900   49.02500
      O    O282    17.65500   22.07400   48.01700
      C    C283    19.38900   24.65800   48.86200
      C    C284    20.65900   25.48700   48.87200
      C    C285    20.27800   26.95900   48.88400
      C    C286    21.51600   25.12700   50.07700
      N    N287    17.51000   22.63300   50.19800
      C    C288    16.10500   22.26800   50.29800
      C    C289    15.32800   23.53600   49.93900
      O    O290    15.92600   24.60400   49.78600
      C    C291    15.70700   21.65800   51.66100
      C    C292    15.91100   22.60000   52.85100
      O    O293    16.06300   23.82300   52.68500
      O    O294    15.90000   22.07700   53.99400
      N    N295    14.01300   23.43800   49.80100
      C    C296    13.24400   24.61400   49.37600
      C    C297    13.15400   25.72200   50.43800
      O    O298    13.01400   26.88100   50.09800
      C    C299    11.86800   24.21000   48.82800
      C    C300    10.91300   23.76000   49.89500
      O    O301    10.55800   24.59200   50.73500
      O    O302    10.44500   22.60400   49.84300
      N    N303    13.26900   25.37100   51.71500
      C    C304    13.18800   26.39100   52.78000
      C    C305    14.43000   27.28300   52.77900
      O    O306    14.31900   28.51100   52.87300
      C    C307    12.95500   25.72600   54.14400
      C    C308    11.62700   24.96300   54.19300
      C    C309    10.40300   25.85900   53.99400
      O    O310    10.40800   26.99500   54.53000
      O    O311     9.42300   25.42000   53.32400
      N    N312    15.60200   26.66600   52.63100
      C    C313    16.86000   27.41600   52.57300
      C    C314    16.88200   28.27300   51.30900
      O    O315    17.27400   29.43600   51.33600
      C    C316    18.04500   26.45800   52.59000
      N    N317    16.41900   27.70000   50.20200
      C    C318    16.38700   28.46000   48.93800
      C    C319    15.45200   29.67100   49.04800
      O    O320    15.80700   30.76100   48.58900
      C    C321    15.99400   27.56000   47.79100
      N    N322    14.29500   29.49000   49.69800
      C    C323    13.31300   30.57000   49.87600
      C    C324    13.85500   31.67700   50.75700
      O    O325    13.63500   32.85300   50.47500
      C    C326    12.00300   30.04600   50.45200
      N    N327    14.54800   31.30200   51.83500
      C    C328    15.14200   32.29000   52.74100
      C    C329    16.24500   33.09100   52.06400
      O    O330    16.30000   34.30900   52.19900
      C    C331    15.66400   31.62300   54.01500
      C    C332    14.55100   31.14000   54.91500
      C    C333    15.06800   30.24600   56.03700
      C    C334    13.91400   29.60100   56.79400
      N    N335    14.36900   28.46000   57.63700
      N    N336    17.10600   32.42200   51.30700
      C    C337    18.16800   33.11800   50.58600
      C    C338    17.51900   34.09200   49.59300
      O    O339    17.88900   35.25500   49.51900
      C    C340    19.09700   32.12000   49.85500
      C    C341    19.94700   31.33900   50.87000
      C    C342    20.00000   32.83600   48.86000
      C    C343    20.69100   30.15300   50.27600
      N    N344    16.52200   33.60500   48.87000
      C    C345    15.81800   34.42100   47.87900
      C    C346    15.14600   35.65000   48.51100
      O    O347    15.26800   36.76100   47.99800
      C    C348    14.81200   33.56600   47.13700
      N    N349    14.44700   35.45200   49.62000
      C    C350    13.79000   36.55400   50.32500
      C    C351    14.81900   37.61100   50.76000
      O    O352    14.60700   38.80700   50.56400
      C    C353    13.03900   36.02200   51.56600
      C    C354    12.25300   37.07000   52.35000
      C    C355    11.68400   36.53000   53.66700
      O    O356    12.05200   35.44400   54.12700
      N    N357    10.79500   37.30600   54.29200
      N    N358    15.92600   37.16300   51.35600
      C    C359    16.97300   38.08800   51.81100
      C    C360    17.61800   38.84700   50.66600
      O    O361    17.82400   40.05100   50.76900
      C    C362    18.06400   37.35900   52.59400
      C    C363    17.69400   36.96000   54.00400
      C    C364    18.85700   36.16500   54.59100
      N    N365    18.77000   35.92900   56.02800
      C    C366    19.48100   36.55800   56.97200
      N    N367    19.29100   36.22300   58.23700
      N    N368    20.37900   37.50600   56.67900
      N    N369    17.94000   38.15600   49.57700
      C    C370    18.54000   38.83200   48.42700
      C    C371    17.57200   39.81200   47.78600
      O    O372    17.98800   40.88300   47.35500
      C    C373    19.05600   37.83000   47.39000
      C    C374    20.21100   36.93800   47.85900
      C    C375    20.60300   35.99600   46.74000
      C    C376    21.39500   37.77500   48.32100
      N    N377    16.29100   39.44600   47.73100
      C    C378    15.26300   40.31200   47.16700
      C    C379    15.14400   41.60900   47.97800
      O    O380    15.02700   42.70300   47.42500
      C    C381    13.90000   39.59900   47.12900
      O    O382    13.91100   38.50200   46.22100
      N    N383    15.17600   41.47200   49.29800
      C    C384    15.09800   42.64600   50.18000
      C    C385    16.28900   43.57800   49.98800
      O    O386    16.12800   44.79100   49.86300
      C    C387    15.02400   42.20700   51.63300
      C    C388    13.68700   41.60000   52.00600
      C    C389    13.66900   41.02100   53.41300
      O    O390    14.73500   40.98700   54.07800
      O    O391    12.58000   40.58200   53.84500
      N    N392    17.48500   43.00200   49.95300
      C    C393    18.70900   43.79300   49.79500
      C    C394    18.89400   44.36900   48.38900
      O    O395    19.27500   45.52900   48.25800
      C    C396    19.92500   42.99200   50.27300
      C    C397    19.90800   42.88500   51.79800
      C    C398    20.82200   41.81500   52.36600
      N    N399    20.62200   41.66300   53.81300
      C    C400    19.59400   41.02400   54.38800
      N    N401    18.61900   40.47400   53.65800
      N    N402    19.52600   40.95100   55.71600
      N    N403    18.61700   43.57900   47.35000
      C    C404    18.75000   44.06300   45.96600
      C    C405    17.57800   44.94000   45.51600
      O    O406    17.69900   45.65800   44.51800
      C    C407    18.92200   42.89300   45.00500
      N    N408    16.46300   44.88000   46.25300
      C    C409    15.21200   45.60700   45.93800
      C    C410    14.68800   45.24500   44.54100
      O    O411    14.23600   46.09400   43.76000
      C    C412    15.35400   47.11900   46.16000
      C    C413    15.58100   47.44200   47.63600
      C    C414    15.65000   48.92000   47.94500
      O    O415    15.49200   49.75500   47.02700
      O    O416    15.86000   49.24800   49.13000
      N    N417    14.76600   43.95300   44.25400
      C    C418    14.28700   43.38000   43.00100
      C    C419    13.97700   41.92800   43.30000
      O    O420    14.50100   41.37700   44.27100
      N    N421    13.14200   41.28700   42.47200
      C    C422    12.74500   39.90800   42.76100
      C    C423    13.75900   38.81500   42.42700
      O    O424    14.16900   38.64800   41.27100
      C    C425    11.48700   39.73000   41.92100
      C    C426    11.71700   40.60000   40.74800
      C    C427    12.43900   41.81700   41.28700
      N    N428    14.14800   38.08200   43.46400
      C    C429    15.01300   36.92800   43.35200
      C    C430    14.14500   35.80900   43.90900
      O    O431    13.60100   35.94800   45.01500
      C    C432    16.29200   37.05600   44.20700
      C    C433    17.15300   38.25600   43.78300
      C    C434    17.08400   35.76000   44.14600
      C    C435    17.87600   38.09500   42.45700
      N    N436    13.99400   34.72000   43.16300
      C    C437    13.11600   33.63000   43.57800
      C    C438    13.90500   32.41600   44.06100
      O    O439    15.10300   32.29900   43.81100
      C    C440    12.24800   33.14600   42.40000
      O    O441    13.09500   32.58200   41.42000
      C    C442    11.43300   34.28600   41.77500
      N    N443    13.22500   31.51700   44.75200
      C    C444    13.84100   30.27000   45.17900
      C    C445    14.39400   29.52500   43.95000
      O    O446    15.47700   28.94200   44.01500
      C    C447    12.83500   29.40900   45.93400
      N    N448    13.66800   29.56000   42.81700
      C    C449    14.17200   28.91600   41.59900
      C    C450    15.49900   29.52400   41.11600
      O    O451    16.38800   28.79300   40.66000
      C    C452    13.13800   28.95600   40.46900
      C    C453    11.91900   28.09100   40.72100
      C    C454    10.85500   28.23100   39.63300
      O    O455     9.67200   27.91200   39.91200
      O    O456    11.20100   28.66500   38.50700
      N    N457    15.62600   30.84800   41.20700
      C    C458    16.87500   31.56100   40.82100
      C    C459    18.04400   31.03300   41.64300
      O    O460    19.14400   30.79100   41.13800
      C    C461    16.77700   33.07900   41.09300
      C    C462    15.82400   33.80100   40.16400
      O    O463    15.69500   33.36000   39.01300
      O    O464    15.20900   34.81600   40.59200
      N    N465    17.77900   30.84400   42.92200
      C    C466    18.79100   30.36400   43.84700
      C    C467    19.15600   28.92400   43.49800
      O    O468    20.32600   28.60400   43.35000
      C    C469    18.30800   30.46800   45.31500
      C    C470    19.35000   29.89100   46.27500
      C    C471    18.02000   31.91500   45.67800
      N    N472    18.13200   28.08700   43.31500
      C    C473    18.30700   26.66100   43.03300
      C    C474    18.98800   26.33100   41.70100
      O    O475    19.63600   25.29300   41.57300
      C    C476    16.94900   25.96200   43.10200
      C    C477    16.38600   25.85600   44.52700
      C    C478    14.90100   25.56600   44.49900
      C    C479    17.16600   24.79800   45.30600
      N    N480    18.85500   27.21100   40.72100
      C    C481    19.42600   26.96300   39.40400
      C    C482    20.81600   27.59800   39.20400
      O    O483    21.41900   27.43400   38.13500
      C    C484    18.45400   27.44300   38.30600
      O    O485    18.16600   28.82300   38.50600
      C    C486    17.16000   26.66900   38.36400
      N    N487    21.32600   28.30400   40.21600
      C    C488    22.64800   28.92900   40.12700
      C    C489    23.75500   27.91100   40.38600
      O    O490    23.74500   27.24100   41.41500
      C    C491    22.74200   30.08900   41.11300
      O    O492    21.75500   31.06500   40.81500
      N    N493    24.70900   27.79800   39.45700
      C    C494    25.82700   26.85000   39.60600
      C    C495    26.81100   27.28700   40.67300
      O    O496    27.41000   26.45100   41.37300
      C    C497    26.60900   26.70800   38.29500
      O    O498    25.76400   26.22900   37.27900
      N    N499    26.98500   28.59600   40.78400
      C    C500    27.93200   29.16000   41.74200
      C    C501    27.46900   30.53900   42.16900
      O    O502    26.49600   31.06400   41.62300
      C    C503    29.33400   29.17500   41.11700
      C    C504    29.37000   29.84800   39.75500
      O    O505    28.61200   30.76300   39.48000
      N    N506    30.28700   29.40400   38.90600
      N    N507    28.15500   31.12300   43.14300
      C    C508    27.78600   32.44500   43.63700
      C    C509    27.89900   33.51500   42.55100
      O    O510    27.08800   34.42300   42.50800
      C    C511    28.61500   32.85900   44.87700
      C    C512    28.29100   31.94100   46.06700
      C    C513    28.35400   34.31200   45.26100
      C    C514    26.85800   32.00600   46.56900
      N    N515    28.88900   33.40000   41.68000
      C    C516    29.05600   34.39200   40.61100
      C    C517    27.76300   34.50500   39.78200
      O    O518    27.30700   35.61900   39.49000
      C    C519    30.26800   34.03700   39.73900
      C    C520    30.69300   35.11000   38.74400
      C    C521    29.85300   35.16400   37.47900
      O    O522    29.88800   36.21300   36.79100
      O    O523    29.16400   34.17100   37.14700
      N    N524    27.17500   33.35900   39.43700
      C    C525    25.92300   33.31200   38.64100
      C    C526    24.74000   33.94100   39.37400
      O    O527    23.96500   34.70800   38.80600
      C    C528    25.59600   31.87100   38.26400
      N    N529    24.59000   33.61300   40.64700
      C    C530    23.50400   34.18100   41.43200
      C    C531    23.72100   35.68300   41.65300
      O    O532    22.78900   36.48300   41.54600
      C    C533    23.38300   33.43800   42.76200
      C    C534    22.26400   33.87400   43.70300
      C    C535    20.92000   33.84800   42.99500
      C    C536    22.26900   32.98400   44.94100
      N    N537    24.96800   36.07000   41.90600
      C    C538    25.28400   37.47800   42.15200
      C    C539    25.02600   38.34000   40.91400
      O    O540    24.71500   39.51900   41.05800
      C    C541    26.72000   37.63800   42.63900
      N    N542    25.17100   37.75200   39.72300
      C    C543    24.88000   38.44500   38.46000
      C    C544    23.43200   38.93700   38.43800
      O    O545    23.16300   40.05800   37.98600
      C    C546    25.11600   37.53100   37.23600
      C    C547    26.59100   37.43300   36.82200
      O    O548    27.44000   38.22400   37.30500
      O    O549    26.91100   36.56900   35.96700
      N    N550    22.50900   38.10500   38.93100
      C    C551    21.08700   38.47500   38.99100
      C    C552    20.89300   39.61900   39.97600
      O    O553    20.19800   40.58900   39.69200
      C    C554    20.23200   37.26200   39.36900
      C    C555    20.39900   36.09600   38.39900
      C    C556    19.45500   34.93300   38.67200
      C    C557    19.72500   33.80900   37.69200
      N    N558    18.87900   32.61200   37.92800
      N    N559    21.55700   39.52400   41.12700
      C    C560    21.49800   40.57300   42.13600
      C    C561    22.06300   41.89300   41.60500
      O    O562    21.49200   42.96400   41.83800
      C    C563    22.28000   40.14000   43.40600
      C    C564    22.44900   41.29600   44.39800
      C    C565    21.58800   38.95300   44.05000
      N    N566    23.16900   41.80200   40.87400
      C    C567    23.85800   42.98300   40.35700
      C    C568    22.97900   43.78200   39.39500
      O    O569    22.98700   45.00800   39.44700
      C    C570    25.18500   42.60500   39.67000
      C    C571    26.01300   43.81900   39.23300
      C    C572    27.39700   43.46700   38.69300
      N    N573    28.16100   42.62300   39.61800
      C    C574    28.35700   41.30700   39.49200
      N    N575    27.88000   40.62300   38.45300
      N    N576    29.06500   40.66500   40.41500
      N    N577    22.21400   43.09100   38.55200
      C    C578    21.33400   43.78500   37.58800
      C    C579    20.36300   44.70500   38.31800
      O    O580    20.05400   45.77800   37.83000
      C    C581    20.53400   42.81700   36.69400
      O    O582    19.58100   42.09900   37.48800
      C    C583    21.45400   41.84300   35.99300
      N    N584    19.90700   44.29800   39.50400
      C    C585    18.99700   45.13300   40.28000
      C    C586    19.67600   46.29800   40.98600
      O    O587    19.10000   47.38500   41.09100
      C    C588    18.23800   44.32300   41.31400
      C    C589    17.38300   43.22100   40.75800
      C    C590    16.66500   43.38100   39.57500
      C    C591    17.23300   42.03200   41.44900
      C    C592    15.86500   42.36600   39.07900
      C    C593    16.43000   41.02200   40.96800
      C    C594    15.75000   41.19400   39.78200
      O    O595    14.95300   40.19700   39.31700
      N    N596    20.88200   46.08100   41.48500
      C    C597    21.59900   47.14300   42.17300
      C    C598    21.91000   48.29200   41.21300
      O    O599    21.73900   49.45900   41.56600
      C    C600    22.87800   46.60700   42.80800
      C    C601    22.70000   45.56900   43.92200
      C    C602    24.06100   45.09400   44.39100
      C    C603    21.89700   46.11900   45.09400
      N    N604    22.33000   47.96600   39.99400
      C    C605    22.66700   49.01700   39.02100
      C    C606    21.44400   49.73800   38.42500
      O    O607    21.58600   50.81900   37.86200
      C    C608    23.59900   48.48500   37.92800
      C    C609    23.00200   47.46900   36.97300
      C    C610    24.06200   46.79400   36.11100
      O    O611    23.79300   46.56400   34.91300
      O    O612    25.17100   46.50600   36.62900
      N    N613    20.25800   49.14300   38.55100
      C    C614    19.02500   49.77400   38.07200
      C    C615    18.31300   50.57700   39.16800
      O    O616    17.34400   51.28100   38.87800
      C    C617    18.08000   48.72600   37.50800
      N    N618    18.79000   50.47700   40.41200
      C    C619    18.16400   51.16000   41.55300
      C    C620    18.16100   52.67700   41.50600
      O    O621    18.92300   53.29200   40.76200
