# CIF file generated by openbabel 2.3.2, see http://openbabel.sf.net
data_I
_chemical_name_common '../proteins/pdb/6D8I.pdb'
_cell_length_a 51.646
_cell_length_b 51.646
_cell_length_c 75.109
_cell_angle_alpha 90
_cell_angle_beta 90
_cell_angle_gamma 90
_space_group_name_H-M_alt 'P 43 21 2'
_space_group_name_Hall 'P 4nw 2abw'
loop_
    _symmetry_equiv_pos_as_xyz
    'x,y,z'
    '-x,-y,1/2+z'
    '1/2-y,1/2+x,3/4+z'
    '1/2+y,1/2-x,1/4+z'
    '1/2-x,1/2+y,3/4-z'
    '1/2+x,1/2-y,1/4-z'
    'y,x,-z'
    '-y,-x,1/2-z'
loop_
    _atom_site_type_symbol
    _atom_site_label
    _atom_site_Cartn_x
    _atom_site_Cartn_y
    _atom_site_Cartn_z
      N    N1    26.91900  -12.80500   29.53000
      C    C2    28.11100  -12.39900   28.78900
      C    C3    29.01200  -11.52000   29.64800
      O    O4    28.54100  -10.59800   30.31500
      C    C5    27.72500  -11.66400   27.50900
      C    C6    28.90100  -11.01400   26.80000
      C    C7    28.51000  -10.45300   25.44900
      N    N8    29.67700   -9.95200   24.72800
      C    C9    30.50600  -10.71800   24.02500
      N    N10    30.29600  -12.02700   23.94700
      N    N11    31.54600  -10.17900   23.40200
      N    N12    30.31400  -11.80700   29.62100
      C    C13    31.25200  -11.09200   30.48300
      C    C14    31.65700   -9.73800   29.92000
      O    O15    31.89000   -8.79800   30.68900
      C    C16    32.50500  -11.94000   30.71400
      N    N17    31.77000   -9.61800   28.60000
      C    C18    32.30400   -8.40300   28.01300
      C    C19    31.30800   -7.25000   28.13900
      O    O20    30.09500   -7.44100   28.27900
      C    C21    32.66700   -8.63100   26.54400
      C    C22    33.87100   -9.55200   26.32400
      C    C23    33.55000  -11.03500   26.46500
      O    O24    32.36200  -11.39000   26.64400
      O    O25    34.49500  -11.85600   26.38900
      N    N26    31.84500   -6.03900   28.09300
      C    C27    31.00900   -4.84500   28.07200
      C    C28    30.11200   -4.85800   26.83900
      O    O29    30.58500   -5.09900   25.72600
      C    C30    31.90200   -3.61000   28.07700
      C    C31    31.27600   -2.23800   28.27800
      C    C32    30.67000   -2.13600   29.67300
      C    C33    32.35500   -1.18600   28.07700
      N    N34    28.81800   -4.59300   27.03400
      C    C35    27.82100   -4.69100   25.97000
      C    C36    27.37000   -3.31200   25.49500
      O    O37    27.57600   -2.29400   26.15600
      C    C38    26.59200   -5.47600   26.43500
      O    O39    25.87500   -4.70700   27.40900
      C    C40    26.99600   -6.81700   27.04700
      N    N41    26.68400   -3.29400   24.35600
      C    C42    26.20700   -2.02600   23.80700
      C    C43    25.13800   -1.42300   24.71700
      O    O44    25.17600   -0.21300   24.97400
      C    C45    25.69900   -2.19700   22.36900
      C    C46    25.02700   -0.90300   21.88400
      C    C47    26.86500   -2.57400   21.46100
      N    N48    24.17900   -2.19800   25.23400
      C    C49    23.24900   -1.62200   26.22300
      C    C50    23.94800   -1.02300   27.43500
      O    O51    23.53200    0.03600   27.92100
      C    C52    22.35800   -2.81800   26.59700
      C    C53    22.38100   -3.67800   25.36400
      C    C54    23.78400   -3.56200   24.83000
      N    N55    25.00300   -1.66800   27.94200
      C    C56    25.73900   -1.09500   29.06500
      C    C57    26.41800    0.21100   28.67000
      O    O58    26.42200    1.18300   29.43800
      C    C59    26.78400   -2.08700   29.57800
      C    C60    26.21600   -3.25200   30.37800
      C    C61    27.31200   -4.19800   30.82200
      O    O62    28.07400   -4.65500   29.95300
      O    O63    27.42600   -4.46700   32.03400
      N    N64    27.01000    0.25000   27.48200
      C    C65    27.73300    1.43100   27.02000
      C    C66    26.77100    2.60400   26.82000
      O    O67    27.08000    3.74200   27.17300
      C    C68    28.47300    1.09900   25.72400
      C    C69    29.44500    2.15100   25.26200
     Se   Se70    30.98800    2.34100   26.45300
      C    C71    30.62000    4.15100   27.07900
      N    N72    25.59400    2.30400   26.25900
      C    C73    24.55900    3.31900   26.09100
      C    C74    24.13100    3.88900   27.43700
      O    O75    24.02200    5.11200   27.60500
      C    C76    23.35800    2.71500   25.35800
      C    C77    23.59600    2.39400   23.88500
      C    C78    22.45300    1.51600   23.36500
      N    N79    21.17200    2.06000   23.81700
      C    C80    20.12200    1.34000   24.20800
      N    N81    20.15800    0.00500   24.19000
      N    N82    19.02400    1.96500   24.62800
      N    N83    23.88200    3.01100   28.41200
      C    C84    23.49300    3.47100   29.74000
      C    C85    24.59400    4.31100   30.36900
      O    O86    24.32100    5.32800   31.01500
      C    C87    23.15400    2.27300   30.62600
      C    C88    22.79500    2.63600   32.05200
      C    C89    22.40000    1.41100   32.86000
      O    O90    21.24100    0.99800   32.85200
      N    N91    23.36800    0.81700   33.54900
      N    N92    25.84900    3.89400   30.20400
      C    C93    26.94800    4.65300   30.78600
      C    C94    26.99800    6.05800   30.19900
      O    O95    27.22300    7.04100   30.92200
      C    C96    28.25000    3.89400   30.54600
      C    C97    29.47200    4.41000   31.23200
      C    C98    30.04200    3.91800   32.36900
      C    C99    30.31500    5.48400   30.78900
      N    N100    31.18300    4.63200   32.67400
      C    C101    31.37100    5.59600   31.71700
      C    C102    30.27200    6.36900   29.69900
      C    C103    32.38000    6.54800   31.58900
      C    C104    31.28000    7.32100   29.57200
      C    C105    32.31900    7.40000   30.51200
      N    N106    26.77600    6.17200   28.88600
      C    C107    26.78700    7.48300   28.24300
      C    C108    25.60400    8.33800   28.68100
      O    O109    25.76400    9.54200   28.92300
      C    C110    26.80500    7.31100   26.72400
      C    C111    28.14100    6.82800   26.15100
      C    C112    27.95900    6.39800   24.70000
      C    C113    29.22800    7.90000   26.25000
      N    N114    24.40700    7.75200   28.77000
      C    C115    23.26600    8.51800   29.27200
      C    C116    23.53600    9.03300   30.67900
      O    O117    23.18900   10.17500   31.01000
      C    C118    21.97900    7.67700   29.25700
      C    C119    21.45600    7.35100   27.85600
      C    C120    20.01500    6.81400   27.89600
      N    N121    19.81200    5.81500   28.94600
      C    C122    20.04700    4.51200   28.80600
      N    N123    20.49400    4.02800   27.64900
      N    N124    19.84400    3.69100   29.83300
      N    N125    24.12900    8.19200   31.53500
      C    C126    24.40500    8.61700   32.90400
      C    C127    25.44900    9.72200   32.92100
      O    O128    25.32700   10.69500   33.67900
      C    C129    24.88400    7.43000   33.74100
      C    C130    23.77300    6.46000   34.07100
      O    O131    22.59300    6.79100   33.96800
      N    N132    24.14500    5.25600   34.49300
      N    N133    26.49100    9.57600   32.10300
      C    C134    27.53100   10.59900   32.03200
      C    C135    26.94300   11.93100   31.59200
      O    O136    27.13700   12.95900   32.24700
      C    C137    28.63600   10.16100   31.06500
      C    C138    29.95900   10.79700   31.37000
      C    C139    31.02500   10.19800   31.97000
      C    C140    30.35100   12.16200   31.12100
      N    N141    32.06000   11.09700   32.10600
      C    C142    31.67000   12.30700   31.59500
      C    C143    29.71500   13.26800   30.54800
      C    C144    32.36500   13.50700   31.51700
      C    C145    30.40700   14.46400   30.46900
      C    C146    31.71900   14.57700   30.95700
      N    N147    26.21500   11.92700   30.47600
      C    C148    25.63300   13.15900   29.94900
      C    C149    24.62700   13.74700   30.93500
      O    O150    24.63200   14.95500   31.21000
      C    C151    24.99600   12.89000   28.57100
      C    C152    24.22800   14.12100   28.07000
      C    C153    26.05900   12.46100   27.57500
      N    N154    23.74300   12.90600   31.48100
      C    C155    22.76500   13.39600   32.43800
      C    C156    23.40700   14.12800   33.60100
      O    O157    22.93600   15.18700   34.01500
      N    N158    24.51000   13.58400   34.12900
      C    C159    25.18000   14.26200   35.23600
      C    C160    25.78600   15.58600   34.78700
      O    O161    25.73700   16.58300   35.52200
      C    C162    26.25900   13.36300   35.83300
      C    C163    25.71700   12.19500   36.64000
      C    C164    26.85100   11.42400   37.29700
      C    C165    26.35100   10.15300   37.96100
      N    N166    27.48300    9.34000   38.49900
      N    N167    26.37500   15.60900   33.59300
      C    C168    27.05300   16.81000   33.11400
      C    C169    26.07800   17.94800   32.84700
      O    O170    26.41500   19.11700   33.07100
      C    C171    27.85100   16.48300   31.85200
      N    N172    24.86500   17.64400   32.39100
      C    C173    23.91600   18.68800   32.02600
      C    C174    22.76900   18.80300   33.01000
      O    O175    21.87400   19.63300   32.80300
      C    C176    23.39000   18.48500   30.59300
      C    C177    24.56800   18.32700   29.62100
      C    C178    22.45200   17.27900   30.51800
      N    N179    22.77200   18.02000   34.08200
      C    C180    21.76800   18.18100   35.11800
      C    C181    20.39000   17.67900   34.75300
      O    O182    19.38600   18.31100   35.11200
      N    N183    20.31300   16.54500   34.06700
      C    C184    19.05200   15.96000   33.64200
      C    C185    19.04200   14.47300   33.96800
      O    O186    20.09500   13.83500   34.06700
      C    C187    18.82600   16.16900   32.14000
      C    C188    18.79600   17.62800   31.72400
      C    C189    18.70000   17.76500   30.21300
      C    C190    18.67900   19.22400   29.78800
      N    N191    18.63300   19.34600   28.30700
      N    N192    17.83900   13.92600   34.12600
      C    C193    17.70400   12.49900   34.38600
      C    C194    18.28200   11.70100   33.22100
      O    O195    17.96900   11.99600   32.05900
      C    C196    16.24000   12.12200   34.59900
      N    N197    19.12000   10.69500   33.48300
      C    C198    19.67300    9.90000   32.37400
      C    C199    18.61100    9.28200   31.48600
      O    O200    18.83600    9.15500   30.27700
      C    C201    20.49700    8.82000   33.08900
      C    C202    20.76500    9.37200   34.45100
      C    C203    19.58500   10.22300   34.79900
      N    N204    17.46500    8.88200   32.04500
      C    C205    16.42300    8.26000   31.23400
      C    C206    15.84600    9.21800   30.20400
      O    O207    15.22300    8.76500   29.23700
      C    C208    15.29000    7.73200   32.12400
      C    C209    15.65700    6.44400   32.85400
      O    O210    16.74400    5.88500   32.60100
      O    O211    14.84700    5.98800   33.69200
      N    N212    16.03300   10.52500   30.38600
      C    C213    15.50400   11.51700   29.46200
      C    C214    16.47700   11.88400   28.34900
      O    O215    16.09800   12.64300   27.45100
      C    C216    15.10700   12.78800   30.22000
      O    O217    16.25400   13.53600   30.58300
      N    N218    17.70800   11.38000   28.38700
      C    C219    18.73000   11.75300   27.41200
      C    C220    18.43700   11.03200   26.10100
      O    O221    18.37700    9.80100   26.06000
      C    C222    20.13600   11.41500   27.92700
      C    C223    20.43100   12.16400   29.22900
      C    C224    21.20100   11.69500   26.85500
      C    C225    20.36500   13.66200   29.12100
      N    N226    18.26900   11.79900   25.02700
      C    C227    17.88500   11.23000   23.73900
      C    C228    19.12500   10.68400   23.03300
      O    O229    20.08700   11.42000   22.79100
      C    C230    17.18800   12.29000   22.88900
      C    C231    16.56000   11.71100   21.63700
      O    O232    17.20800   10.88700   20.97700
      O    O233    15.41500   12.07900   21.31500
      N    N234    19.10300    9.39300   22.70600
      C    C235    20.28600    8.73500   22.16700
      C    C236    20.45100    8.90300   20.66300
      O    O237    21.46700    8.44900   20.12100
      C    C238    20.25200    7.23400   22.48300
      C    C239    20.23000    6.86700   23.96900
      C    C240    20.30100    5.36100   24.16500
      O    O241    21.01200    4.70500   23.37200
      O    O242    19.63300    4.83000   25.08200
      N    N243    19.49200    9.52400   19.97500
      N    N244    19.49700    9.52000   19.97200
      C    C245    19.56200    9.68500   18.52700
      C    C246    19.60900    9.68100   18.52800
      C    C247    19.89200   11.10200   18.08600
      C    C248    20.04100   11.07700   18.10900
      O    O249    20.05100   11.33600   16.88500
      O    O250    20.42700   11.26300   16.95100
      C    C251    18.24700    9.25300   17.87100
      C    C252    18.27900    9.34200   17.84900
      O    O253    17.23000   10.22300   18.07600
      O    O254    17.79300    8.09100   18.29700
      N    N255    19.99900   12.05300   19.00900
      C    C256    20.34200   13.42300   18.63200
      C    C257    21.85600   13.59100   18.60100
      O    O258    22.59500   12.82000   19.23800
      C    C259    19.68800   14.44700   19.57300
      C    C260    18.18700   14.20200   19.64700
      C    C261    20.32700   14.38900   20.95200
      N    N262    22.36600   14.57200   17.86200
      C    C263    23.81500   14.78500   17.83600
      C    C264    24.31100   15.13400   19.22900
      O    O265    23.69500   15.92300   19.94400
      C    C266    23.98900   15.96600   16.87200
      C    C267    22.73700   15.97600   16.04100
      C    C268    21.64300   15.46900   16.94300
      N    N269    25.42300   14.53300   19.61700
      C    C270    25.94100   14.76800   20.95800
      C    C271    26.36400   16.23100   21.15000
      O    O272    26.32200   16.74400   22.27000
      C    C273    27.08700   13.80000   21.24200
      C    C274    26.56800   12.37000   21.32200
     Se   Se275    27.91500   11.03200   21.72700
      C    C276    28.27300   11.57000   23.54200
      N    N277    26.72400   16.92000   20.06300
      C    C278    27.02800   18.34600   20.17000
      C    C279    25.80800   19.19000   20.50300
      O    O280    25.96300   20.38200   20.78800
      C    C281    27.66100   18.91900   18.88200
      C    C282    28.98500   18.23200   18.57200
      C    C283    26.69400   18.83100   17.70700
      N    N284    24.59900   18.61600   20.46900
      C    C285    23.37700   19.33200   20.82000
      C    C286    22.85300   18.96800   22.20600
      O    O287    21.78200   19.43700   22.59500
      C    C288    22.28400   19.07300   19.77100
      C    C289    22.65000   19.58400   18.38700
      C    C290    21.58800   19.29300   17.33800
      O    O291    20.45800   18.89100   17.70200
      O    O292    21.89700   19.46200   16.14100
      N    N293    23.58900   18.16100   22.96900
      C    C294    23.10600   17.70700   24.26800
      C    C295    23.37000   18.69800   25.39600
      O    O296    22.87200   18.49100   26.50800
      C    C297    23.74500   16.36200   24.61600
      C    C298    23.35400   15.18300   23.71600
      C    C299    24.28800   14.00800   23.97000
      C    C300    21.92300   14.77700   23.98600
      N    N301    24.12200   19.76100   25.14500
      C    C302    24.47200   20.70300   26.19000
      C    C303    25.82600   20.48000   26.82300
      O    O304    26.13000   21.13000   27.83400
      N    N305    26.64000   19.58500   26.26700
      C    C306    27.99100   19.34400   26.74800
      C    C307    28.91900   20.46800   26.31600
      O    O308    28.74400   21.06900   25.25100
      C    C309    28.52800   18.02000   26.20500
      C    C310    27.71100   16.77400   26.55600
      C    C311    28.08700   15.61700   25.64500
      C    C312    27.92500   16.42200   28.02700
      N    N313    29.91900   20.73700   27.14800
      C    C314    30.96700   21.70100   26.84900
      C    C315    32.18100   20.98200   26.27200
      O    O316    32.29000   19.75700   26.32000
      C    C317    31.36800   22.45700   28.11500
      O    O318    32.00900   21.56300   29.00800
      N    N319    33.12000   21.76300   25.73200
      C    C320    34.36200   21.15100   25.26800
      C    C321    35.13700   20.54400   26.43300
      O    O322    35.77600   19.49500   26.28400
      C    C323    35.21100   22.17700   24.51900
      O    O324    34.58000   22.52300   23.30000
      N    N325    35.07900   21.17500   27.60800
      C    C326    35.69400   20.56300   28.78600
      C    C327    35.04800   19.21900   29.10300
      O    O328    35.73400   18.25800   29.48300
      C    C329    35.59200   21.49300   29.99400
      C    C330    36.53900   22.67100   29.94700
      C    C331    36.40000   23.54500   31.19300
      N    N332    36.85700   22.87100   32.41000
      C    C333    38.11400   22.89100   32.84700
      N    N334    39.04700   23.54900   32.16500
      N    N335    38.44000   22.25200   33.96500
      N    N336    33.72100   19.13800   28.96100
      C    C337    33.03600   17.85900   29.13400
      C    C338    33.56100   16.81900   28.15900
      O    O339    33.73700   15.64800   28.52200
      C    C340    31.53100   18.02100   28.92300
      C    C341    30.84300   18.76800   30.05000
      O    O342    31.35900   18.79500   31.19400
      O    O343    29.75700   19.32100   29.77700
      N    N344    33.76500   17.21000   26.90100
      C    C345    34.23200   16.24700   25.90900
      C    C346    35.58000   15.66400   26.31100
      O    O347    35.81600   14.46300   26.15400
      C    C348    34.31700   16.90800   24.53400
      N    N349    36.47500   16.50300   26.83000
      C    C350    37.78000   16.02000   27.28700
      C    C351    37.60000   15.03500   28.43600
      O    O352    38.17900   13.94200   28.44200
      C    C353    38.67800   17.20000   27.69600
      C    C354    39.98700   16.70200   28.28600
      C    C355    38.95300   18.08700   26.48500
      N    N356    36.77600   15.40700   29.41500
      C    C357    36.57000   14.54800   30.57600
      C    C358    35.89100   13.24300   30.18400
      O    O359    36.24200   12.17100   30.69700
      C    C360    35.74700   15.29300   31.62900
      N    N361    34.90600   13.31000   29.29700
      N    N362    34.91900   13.30000   29.28000
      C    C363    34.20000   12.10200   28.89900
      C    C364    34.19800   12.08200   28.92000
      C    C365    35.15500   11.17500   28.17300
      C    C366    35.09000   11.16200   28.10000
      O    O367    35.17800    9.97000   28.41800
      O    O368    35.00300    9.94200   28.20800
      C    C369    33.00200   12.41800   28.00800
      C    C370    32.91300   12.39000   28.14800
      C    C371    32.32100   11.15600   27.52100
      C    C372    31.96200   11.19500   28.13100
     Se   Se373    30.84200   11.48100   26.31300
     Se   Se374    30.23800   11.54100   27.29100
      C    C375    29.60700   12.35900   27.54600
      C    C376    30.84600   11.63500   25.43400
      N    N377    35.95900   11.75200   27.28000
      C    C378    36.90800   10.93700   26.53500
      C    C379    37.86600   10.23300   27.48300
      O    O380    38.18100    9.05000   27.29600
      C    C381    37.66100   11.81300   25.52000
      N    N382    38.32100   10.93800   28.52200
      C    C383    39.20500   10.32000   29.50300
      C    C384    38.49300    9.19800   30.24300
      O    O385    39.09200    8.15800   30.53000
      C    C386    39.70300   11.37000   30.50000
      N    N387    37.21600    9.40800   30.58300
      C    C388    36.47900    8.40100   31.33900
      C    C389    36.18600    7.18600   30.47000
      O    O390    36.20200    6.04900   30.95600
      C    C391    35.17500    8.99100   31.88800
      C    C392    35.39500    9.96000   33.03700
      O    O393    36.52900   10.04300   33.57200
      O    O394    34.41600   10.64700   33.41200
      N    N395    35.91600    7.40600   29.17700
      C    C396    35.71200    6.28200   28.26500
      C    C397    36.99000    5.46800   28.14500
      O    O398    36.96000    4.23400   28.11100
      C    C399    35.23000    6.78400   26.89000
      C    C400    33.77800    7.24100   26.98100
      C    C401    35.37600    5.67900   25.82200
      C    C402    33.28800    7.97000   25.73200
      N    N403    38.13600    6.14700   28.06600
      C    C404    39.40500    5.43000   28.00500
      C    C405    39.63000    4.59900   29.26900
      O    O406    40.10900    3.46200   29.19500
      C    C407    40.54300    6.42800   27.78700
      C    C408    41.91700    5.80100   27.58900
      C    C409    42.97500    6.85200   27.30700
      O    O410    42.90200    7.50500   26.24300
      O    O411    43.85500    7.04800   28.16800
      N    N412    39.27000    5.14100   30.43900
      C    C413    39.40900    4.37800   31.68100
      C    C414    38.46900    3.17400   31.70800
      O    O415    38.81100    2.12200   32.27000
      C    C416    39.13800    5.27900   32.88800
      C    C417    40.26500    6.25400   33.16000
      O    O418    41.38000    6.05200   32.63900
      O    O419    40.03300    7.21100   33.92500
      N    N420    37.26900    3.32600   31.14000
      C    C421    36.27300    2.25800   31.16500
      C    C422    36.59800    1.15200   30.17100
      O    O423    36.40500   -0.03600   30.46900
      C    C424    34.89100    2.83500   30.84300
      C    C425    33.75800    1.82800   30.64200
      C    C426    33.31000    1.22000   31.98500
      C    C427    32.57600    2.47100   29.92100
      N    N428    37.06200    1.52700   28.97500
      C    C429    37.13900    0.59700   27.85600
      C    C430    38.55000    0.33900   27.36400
      O    O431    38.74900   -0.60700   26.59200
      C    C432    36.33700    1.12200   26.65700
      O    O433    36.98400    2.30300   26.16200
      C    C434    34.89400    1.45400   27.02900
      N    N435    39.51600    1.16500   27.74500
      C    C436    40.85100    1.08500   27.19600
      C    C437    40.98200    1.66000   25.80500
      O    O438    42.06300    1.55900   25.21400
      N    N439    39.91500    2.25800   25.27400
      C    C440    39.88600    2.84800   23.93800
      C    C441    40.11700    4.34900   24.03400
      O    O442    39.41100    5.05000   24.77300
      C    C443    38.54300    2.56600   23.24200
      C    C444    38.47600    3.28400   21.88400
      C    C445    38.34400    1.05200   23.06100
      N    N446    41.08200    4.84400   23.25700
      C    C447    41.27800    6.27800   23.05700
      C    C448    40.48600    6.67100   21.81300
      O    O449    40.87100    6.32700   20.69200
      C    C450    42.76100    6.60000   22.88800
      O    O451    43.49100    6.16000   24.04400
      C    C452    42.96100    8.10700   22.69200
      N    N453    39.36500    7.36000   22.00200
      C    C454    38.51100    7.69200   20.86500
      C    C455    39.15400    8.76700   20.00200
      O    O456    39.57700    9.80600   20.51200
      C    C457    37.15100    8.18900   21.35100
      C    C458    36.15900    7.14400   21.83500
      C    C459    35.00400    7.86800   22.49700
      C    C460    35.66800    6.32400   20.65500
      N    N461    39.20300    8.52800   18.69000
      C    C462    39.67600    9.54000   17.75100
      C    C463    38.56600   10.53500   17.42200
      O    O464    37.37500   10.22500   17.51500
      C    C465    40.16500    8.89100   16.45500
      O    O466    39.07300    8.31600   15.75400
      N    N467    38.97300   11.75000   17.02600
      C    C468    38.00800   12.72000   16.51100
      C    C469    37.21400   12.10300   15.37900
      O    O470    35.98800   12.25200   15.29400
      C    C471    38.73000   13.99600   16.03400
      C    C472    37.76200   14.89200   15.26500
      C    C473    39.33200   14.74200   17.22000
      N    N474    37.90800   11.40900   14.47900
      C    C475    37.23800   10.85100   13.31200
      C    C476    36.12900    9.89000   13.71900
      O    O477    34.98900   10.00400   13.25200
      C    C478    38.25900   10.17100   12.40100
      N    N479    36.44300    8.92300   14.58300
      N    N480    36.42700    8.94700   14.61700
      C    C481    35.42700    7.95500   14.98200
      C    C482    35.40800    7.95200   14.93900
      C    C483    34.26800    8.66200   15.66300
      C    C484    34.28200    8.56500   15.75700
      O    O485    33.09400    8.40900   15.36800
      O    O486    33.12700    8.13100   15.65500
      C    C487    36.03500    6.87900   15.89700
      C    C488    36.02600    6.74800   15.67100
      C    C489    34.92500    6.09300   16.59000
      C    C490    36.35000    7.11700   17.10100
      C    C491    36.93300    5.95800   15.08600
      C    C492    35.06700    5.56200   15.62300
      N    N493    34.58100    9.56700   16.58900
      C    C494    33.52500   10.16700   17.39000
      C    C495    32.57000   10.96900   16.52000
      O    O496    31.34800   10.83800   16.64400
      C    C497    34.11800   11.04200   18.49300
      N    N498    33.09700   11.80700   15.63200
      C    C499    32.17900   12.64200   14.86800
      C    C500    31.56200   11.91500   13.68700
      O    O501    30.56400   12.40500   13.13900
      C    C502    32.88200   13.93200   14.44700
      C    C503    32.98300   14.89300   15.58900
      C    C504    33.97000   14.73000   16.55200
      C    C505    32.00800   15.85800   15.78000
      C    C506    34.02400   15.56700   17.65800
      C    C507    32.05600   16.70200   16.87600
      C    C508    33.07000   16.55500   17.82000
      N    N509    32.09500   10.74700   13.32500
      C    C510    31.43300    9.87900   12.35700
      C    C511    30.35400    9.02400   13.00400
      O    O512    29.56800    8.39700   12.28800
      C    C513    32.45900    8.97100   11.66500
      N    N514    30.31200    8.98000   14.33300
      C    C515    29.27500    8.27300   15.08700
      C    C516    28.74600    9.23200   16.13600
      O    O517    28.94900    9.03400   17.34100
      C    C518    29.83600    6.99200   15.70500
      C    C519    30.45700    6.08400   14.68900
      N    N520    31.72600    6.28900   14.19000
      C    C521    29.97100    4.99500   14.04800
      C    C522    31.99900    5.36000   13.28900
      N    N523    30.94900    4.56300   13.18400
      N    N524    28.04700   10.29000   15.70100
      C    C525    27.87100   11.47000   16.55700
      C    C526    26.63200   11.44000   17.43200
      O    O527    26.16800   12.50100   17.86200
      C    C528    27.78300   12.61100   15.53600
      C    C529    27.06900   11.96100   14.36400
      C    C530    27.62200   10.54900   14.30700
      N    N531    26.09000   10.25300   17.69700
      C    C532    24.93300   10.10500   18.56900
      C    C533    25.28000    9.07600   19.63600
      O    O534    26.14300    8.22300   19.43300
      C    C535    23.69000    9.65200   17.79200
      O    O536    23.89400    8.30500   17.34600
      C    C537    23.44300   10.55500   16.57100
      N    N538    24.60200    9.14300   20.78700
      C    C539    24.95200    8.20100   21.84500
      C    C540    24.82100    6.76600   21.35000
      O    O541    25.69800    5.92900   21.58700
      C    C542    24.09800    8.45000   23.09800
      C    C543    24.59300    9.70000   23.82600
      C    C544    24.15000    7.20800   24.01100
      C    C545    23.64800   10.16800   24.93300
      N    N546    23.73700    6.45500   20.63900
      C    C547    23.54600    5.06000   20.25400
      C    C548    24.58300    4.61900   19.22700
      O    O549    25.07300    3.48700   19.29000
      C    C550    22.11900    4.83100   19.74700
      C    C551    21.73800    5.64300   18.51700
      C    C552    20.24200    5.62600   18.25600
      O    O553    19.49200    4.97800   19.02100
      O    O554    19.80900    6.27000   17.28500
      N    N555    24.95300    5.49000   18.28000
      C    C556    25.93500    5.06400   17.28400
      C    C557    27.33900    5.01600   17.87600
      O    O558    28.13000    4.12800   17.53200
      C    C559    25.89100    5.96000   16.03500
      O    O560    26.19700    7.32600   16.29000
      N    N561    27.66800    5.96100   18.76200
      C    C562    28.97200    5.93800   19.41200
      C    C563    29.11800    4.68700   20.26600
      O    O564    30.13200    3.98400   20.19500
      C    C565    29.16400    7.19200   20.26200
      C    C566    30.51600    7.25200   20.97600
      C    C567    31.64700    7.34800   19.94800
      C    C568    30.57000    8.42000   21.95400
      N    N569    28.09100    4.38100   21.06100
      C    C570    28.14900    3.19300   21.90600
      C    C571    28.35500    1.93800   21.07300
      O    O572    29.16600    1.07000   21.42200
      C    C573    26.86700    3.08200   22.73600
      N    N574    27.61900    1.81800   19.96900
      C    C575    27.73500    0.63600   19.12900
      C    C576    29.13900    0.50600   18.55900
      O    O577    29.67800   -0.60200   18.46200
      C    C578    26.70000    0.70000   18.00400
      O    O579    25.38700    0.75100   18.58000
      C    C580    26.81600   -0.52300   17.10400
      N    N581    29.74400    1.63100   18.16200
      C    C582    31.06700    1.59200   17.56100
      C    C583    32.16400    1.33800   18.59400
      O    O584    33.16600    0.68800   18.26900
      C    C585    31.32500    2.90300   16.80500
      C    C586    32.70100    3.00000   16.16500
      C    C587    32.91100    1.91900   15.11500
      N    N588    34.19700    2.07800   14.44800
      C    C589    35.37400    1.80000   15.00500
      N    N590    35.43500    1.35200   16.25500
      N    N591    36.49700    1.97800   14.31300
      N    N592    32.00500    1.83500   19.82500
      C    C593    33.01400    1.58200   20.85800
      C    C594    33.10900    0.09400   21.14000
      O    O595    34.20800   -0.45900   21.30900
      C    C596    32.68400    2.35600   22.14800
      C    C597    32.86900    3.86300   21.96800
      C    C598    33.54100    1.83100   23.31500
      C    C599    32.27200    4.66400   23.11900
      N    N600    31.95500   -0.57000   21.22500
      C    C601    31.90900   -1.98600   21.57800
      C    C602    32.20100   -2.84600   20.36100
      O    O603    32.94700   -3.82900   20.43600
      C    C604    30.53400   -2.34500   22.17400
      C    C605    30.21200   -1.44900   23.37000
      C    C606    30.48100   -3.83500   22.52900
      C    C607    31.18200   -1.61700   24.55300
      N    N608    31.58400   -2.49600   19.23900
      C    C609    31.65000   -3.25300   18.00200
      C    C610    32.72400   -2.64800   17.11300
      O    O611    32.41700   -2.03300   16.09200
      C    C612    30.29100   -3.24200   17.28500
      C    C613    29.09600   -3.67200   18.14600
      C    C614    27.82000   -3.87100   17.32200
      O    O615    27.85300   -3.58600   16.10300
      O    O616    26.78800   -4.31400   17.88500
      O    O617    33.91500   -2.74400   17.41000
