# CIF file generated by openbabel 2.3.2, see http://openbabel.sf.net
data_I
_chemical_name_common '../proteins/pdb/6D8J.pdb'
_cell_length_a 51.972
_cell_length_b 51.972
_cell_length_c 74.498
_cell_angle_alpha 90
_cell_angle_beta 90
_cell_angle_gamma 90
_space_group_name_H-M_alt 'P 43 21 2'
_space_group_name_Hall 'P 4nw 2abw'
loop_
    _symmetry_equiv_pos_as_xyz
    'x,y,z'
    '-x,-y,1/2+z'
    '1/2-y,1/2+x,3/4+z'
    '1/2+y,1/2-x,1/4+z'
    '1/2-x,1/2+y,3/4-z'
    '1/2+x,1/2-y,1/4-z'
    'y,x,-z'
    '-y,-x,1/2-z'
loop_
    _atom_site_type_symbol
    _atom_site_label
    _atom_site_Cartn_x
    _atom_site_Cartn_y
    _atom_site_Cartn_z
      N    N1    65.25500   22.72300   10.35400
      C    C2    64.47300   23.57300    9.46500
      C    C3    63.68700   22.73200    8.46400
      O    O4    62.83200   23.25400    7.74700
      C    C5    65.38000   24.55800    8.72300
      N    N6    63.98200   21.43000    8.41300
      C    C7    63.28800   20.56200    7.46400
      C    C8    61.90600   20.15100    7.95300
      O    O9    61.00900   19.91200    7.13200
      C    C10    64.12000   19.30700    7.17900
      N    N11    61.71300   20.03800    9.26500
      C    C12    60.48100   19.47700    9.78400
      C    C13    59.31900   20.44500    9.57800
      O    O14    59.49400   21.65700    9.43100
      C    C15    60.62300   19.14200   11.26900
      C    C16    61.60200   18.01400   11.57500
      C    C17    63.05500   18.42200   11.40500
      O    O18    63.32200   19.62700   11.21200
      O    O19    63.93200   17.53400   11.46400
      N    N20    58.11400   19.89200    9.56200
      C    C21    56.92300   20.73600    9.54800
      C    C22    56.89300   21.62100   10.79200
      O    O23    57.09100   21.14000   11.90900
      C    C24    55.67500   19.85000    9.48500
      C    C25    54.32000   20.51900    9.27500
      C    C26    54.20100   21.08600    7.86200
      C    C27    53.20400   19.50500    9.55300
      N    N28    56.64300   22.91500   10.60300
      C    C29    56.71900   23.88800   11.68700
      C    C30    55.32900   24.29000   12.16600
      O    O31    54.31500   24.06400   11.49700
      C    C32    57.48100   25.13700   11.24300
      O    O33    56.69800   25.85800   10.28700
      C    C34    58.79000   24.75000   10.59700
      N    N35    55.29500   24.95400   13.32700
      C    C36    54.01900   25.45100   13.84600
      C    C37    53.41000   26.49600   12.92100
      O    O38    52.20900   26.39900   12.62200
      C    C39    54.18500   25.96200   15.28800
      C    C40    52.87900   26.60800   15.75100
      C    C41    54.52900   24.81600   16.21000
      N    N42    54.14900   27.49600   12.43200
      C    C43    53.56700   28.39500   11.42300
      C    C44    53.01600   27.66000   10.21000
      O    O45    51.93500   28.00700    9.72400
      C    C46    54.74300   29.32000   11.06600
      C    C47    55.56400   29.34300   12.30900
      C    C48    55.47900   27.94500   12.87500
      N    N49    53.71600   26.63000    9.72100
      C    C50    53.19700   25.86400    8.60000
      C    C51    51.90100   25.16500    8.97300
      O    O52    50.93800   25.17000    8.19500
      C    C53    54.24800   24.85500    8.12500
      C    C54    55.41300   25.53500    7.40900
      C    C55    56.51000   24.58000    6.99700
      O    O56    57.23300   24.89500    6.03300
      O    O57    56.66300   23.52300    7.63000
      N    N58    51.85400   24.56200   10.16500
      C    C59    50.65800   23.84000   10.58200
      C    C60    49.49400   24.80400   10.77700
      O    O61    48.35500   24.49600   10.40700
      C    C62    50.94900   23.06300   11.86700
      C    C63    49.86100   22.09500   12.30300
      S    S64    49.66800   20.73000   11.13700
      C    C65    47.97000   20.97400   10.64200
      N    N66    49.76700   25.98000   11.35300
      C    C67    48.72800   26.99400   11.51200
      C    C68    48.16100   27.41800   10.16200
      O    O69    46.94100   27.48300    9.97900
      C    C70    49.29000   28.21500   12.25000
      C    C71    49.59700   27.99600   13.72000
      C    C72    50.37800   29.18900   14.29800
      N    N73    49.83300   30.46300   13.82800
      C    C74    50.55300   31.44700   13.29100
      N    N75    51.87900   31.34300   13.17800
      N    N76    49.94800   32.55400   12.87600
      N    N77    49.04100   27.73200    9.20900
      N    N78    49.03900   27.70000    9.19600
      C    C79    48.59400   28.12800    7.87700
      C    C80    48.58600   28.13800    7.87800
      C    C81    47.75600   27.03100    7.23100
      C    C82    47.79800   27.04000    7.16900
      O    O83    46.71800   27.30500    6.61600
      O    O84    46.83800   27.32400    6.44200
      C    C85    49.80200   28.45900    7.00400
      C    C86    49.78600   28.57400    7.03700
      C    C87    49.44900   28.78900    5.56500
      C    C88    49.45000   28.95000    5.60100
      C    C89    48.80600   30.15100    5.43600
      C    C90    50.66400   29.44100    4.83100
      O    O91    47.59100   30.29500    5.56600
      O    O92    51.77900   29.45100    5.35200
      N    N93    49.62700   31.17000    5.19900
      N    N94    50.45300   29.85200    3.58800
      N    N95    48.18900   25.78100    7.36500
      C    C96    47.46000   24.68600    6.74600
      C    C97    46.05200   24.58000    7.32400
      O    O98    45.08400   24.31900    6.59400
      C    C99    48.25300   23.40300    6.95200
      C    C100    47.74100   22.18400    6.29800
      C    C101    48.20000   21.62400    5.13800
      C    C102    46.71200   21.31800    6.78300
      N    N103    47.50500   20.46700    4.86000
      C    C104    46.58800   20.25700    5.85800
      C    C105    45.87000   21.33700    7.90700
      C    C106    45.66900   19.23200    6.01900
      C    C107    44.95200   20.30200    8.06600
      C    C108    44.86100   19.26800    7.13600
      N    N109    45.92400   24.79400    8.63100
      C    C110    44.61100   24.77400    9.27300
      C    C111    43.75100   25.94100    8.81000
      O    O112    42.54800   25.76400    8.55900
      C    C113    44.77500   24.78500   10.79200
      C    C114    45.22300   23.43500   11.36800
      C    C115    45.61500   23.57000   12.82300
      C    C116    44.13800   22.35900   11.19800
      N    N117    44.33300   27.14300    8.70300
      C    C118    43.56500   28.27800    8.19000
      C    C119    43.08900   28.01100    6.77200
      O    O120    41.94300   28.32300    6.42400
      C    C121    44.38400   29.57600    8.23400
      C    C122    44.71900   30.09300    9.63300
      C    C123    45.28500   31.53100    9.57800
      N    N124    46.33100   31.70600    8.56200
      C    C125    47.64000   31.53800    8.77700
      N    N126    48.09900   31.18900    9.97700
      N    N127    48.50300   31.72300    7.78500
      N    N128    43.95600   27.44300    5.93000
      C    C129    43.55200   27.11400    4.56700
      C    C130    42.39600   26.12700    4.56900
      O    O131    41.43200   26.27400    3.80500
      C    C132    44.73300   26.51900    3.79800
      C    C133    45.83000   27.52800    3.51400
      O    O134    45.62400   28.73700    3.60300
      N    N135    47.00400   27.02600    3.14800
      N    N136    42.50000   25.09100    5.40500
      C    C137    41.48300   24.04600    5.44700
      C    C138    40.14200   24.62700    5.85500
      O    O139    39.12000   24.41700    5.18500
      C    C140    41.91400   22.94900    6.42800
      C    C141    41.28400   21.63600    6.14400
      C    C142    41.88500   20.55400    5.56900
      C    C143    39.91300   21.26100    6.37200
      N    N144    40.98200   19.52700    5.43100
      C    C145    39.76500   19.93100    5.91800
      C    C146    38.80400   21.91400    6.91300
      C    C147    38.55100   19.24800    5.98000
      C    C148    37.60200   21.22900    6.98300
      C    C149    37.48400   19.90900    6.51600
      N    N150    40.13200   25.37300    6.95600
      C    C151    38.89300   25.96300    7.45000
      C    C152    38.33500   26.95100    6.43800
      O    O153    37.13500   26.95300    6.13900
      C    C154    39.12900   26.63000    8.81400
      C    C155    37.85900   27.33300    9.28100
      C    C156    39.57300   25.59700    9.83900
      N    N157    39.19300   27.83000    5.92000
      C    C158    38.73300   28.79500    4.93300
      C    C159    38.01600   28.13100    3.77700
      O    O160    36.96200   28.59500    3.33600
      N    N161    38.55700   27.01600    3.28900
      C    C162    37.90900   26.34400    2.16500
      C    C163    36.57600   25.73600    2.58500
      O    O164    35.59600   25.78100    1.82400
      C    C165    38.84600   25.28100    1.59600
      C    C166    38.32600   24.56000    0.37300
      C    C167    39.34400   23.53900   -0.10200
      C    C168    38.80600   22.69500   -1.24300
      N    N169    39.69800   21.53000   -1.49500
      N    N170    36.51700   25.18600    3.80300
      C    C171    35.31000   24.51200    4.28100
      C    C172    34.16300   25.48600    4.50100
      O    O173    32.99900   25.14100    4.26700
      C    C174    35.61800   23.75100    5.56900
      N    N175    34.45900   26.69900    4.96000
      C    C176    33.42500   27.67200    5.29900
      C    C177    33.31400   28.78600    4.27400
      O    O178    32.46000   29.67300    4.43200
      C    C179    33.64100   28.25600    6.71200
      C    C180    33.71000   27.14100    7.73900
      C    C181    34.89300   29.12100    6.76800
      N    N182    34.12900   28.77000    3.22400
      C    C183    34.01400   29.77700    2.18500
      C    C184    34.53600   31.14200    2.57100
      O    O185    33.90000   32.15900    2.25400
      N    N186    35.68700   31.19600    3.23600
      C    C187    36.27800   32.45300    3.66400
      C    C188    37.76900   32.44100    3.36400
      O    O189    38.39600   31.38400    3.25600
      C    C190    36.05100   32.70700    5.15900
      C    C191    34.59000   32.80500    5.55800
      C    C192    34.45400   32.93000    7.06300
      C    C193    33.00000   33.07300    7.47800
      N    N194    32.86500   33.13500    8.95900
      N    N195    38.32600   33.63600    3.22800
      C    C196    39.74900   33.76300    2.97300
      C    C197    40.52300   33.19100    4.15500
      O    O198    40.16900   33.46500    5.31100
      C    C199    40.12600   35.22600    2.74600
      N    N200    41.55800   32.38400    3.92000
      C    C201    42.28500   31.80200    5.06100
      C    C202    42.83300   32.84800    6.00900
      O    O203    42.82400   32.64300    7.23200
      C    C204    43.40100   30.98500    4.39100
      C    C205    43.47300   31.47700    2.98600
      C    C206    42.08400   31.91200    2.63100
      N    N207    43.30400   33.97900    5.47600
      C    C208    43.83100   35.04200    6.32000
      C    C209    42.78800   35.62100    7.26000
      O    O210    43.16100   36.32300    8.20800
      C    C211    44.40900   36.16900    5.45400
      C    C212    45.75600   35.81700    4.84700
      O    O213    46.27800   34.71300    5.12000
      O    O214    46.29900   36.65700    4.09600
      N    N215    41.50500   35.35400    7.03200
      C    C216    40.45100   35.88200    7.88400
      C    C217    40.03400   34.91600    8.98500
      O    O218    39.21100   35.28700    9.83100
      C    C219    39.21900   36.25000    7.04900
      O    O220    38.42000   35.11000    6.78400
      N    N221    40.57800   33.69900    8.99700
      C    C222    40.18100   32.68700    9.96900
      C    C223    40.85300   32.98600   11.30400
      O    O224    42.07800   33.14300   11.38000
      C    C225    40.53800   31.27800    9.46700
      C    C226    39.79400   30.96100    8.16900
      C    C227    40.20300   30.23800   10.52000
      C    C228    38.29400   31.10900    8.27600
      N    N229    40.04900   33.05700   12.36300
      C    C230    40.53400   33.45600   13.68000
      C    C231    41.16000   32.25000   14.37500
      O    O232    40.47800   31.25300   14.62500
      C    C233    39.37000   34.02000   14.49200
      C    C234    39.81100   34.70900   15.76600
      O    O235    40.79900   34.27800   16.39700
      O    O236    39.13600   35.68900   16.15000
      N    N237    42.46000   32.33600   14.67200
      C    C238    43.18100   31.21200   15.25800
      C    C239    42.97100   31.06000   16.75800
      O    O240    43.47200   30.08400   17.33700
      C    C241    44.68100   31.35800   14.99500
      C    C242    45.05000   31.37500   13.52600
      C    C243    46.54600   31.24300   13.33300
      O    O244    47.18800   30.55900   14.16500
      O    O245    47.07700   31.83000   12.36700
      N    N246    42.26800   31.98900   17.40400
      C    C247    42.12100   31.97800   18.85700
      C    C248    40.74200   31.54900   19.32400
      O    O249    40.55700   31.31700   20.52300
      C    C250    42.43000   33.37300   19.42700
      O    O251    43.74500   33.76800   19.07300
      N    N252    39.76700   31.46300   18.42600
      C    C253    38.42000   31.07300   18.82600
      C    C254    38.31900   29.55200   18.86200
      O    O255    39.11500   28.84600   18.21900
      C    C256    37.36800   31.68100   17.88900
      C    C257    37.48500   33.18900   17.89200
      C    C258    37.53500   31.12900   16.47800
      N    N259    37.36400   29.00400   19.60000
      C    C260    37.17500   27.55300   19.59500
      C    C261    36.85000   27.06600   18.19100
      O    O262    36.06600   27.68100   17.47200
      C    C263    35.98900   27.35000   20.54800
      C    C264    35.96400   28.58800   21.39200
      C    C265    36.41600   29.69300   20.49400
      N    N266    37.47100   25.95500   17.79400
      C    C267    37.24500   25.45800   16.44100
      C    C268    35.78900   25.03800   16.23100
      O    O269    35.28900   25.07700   15.10100
      C    C270    38.22900   24.31500   16.15400
      C    C271    39.66000   24.83100   16.03400
      S    S272    40.92500   23.58200   15.74400
      C    C273    40.49400   23.08100   14.08800
      N    N274    35.07500   24.67500   17.30000
      C    C275    33.64800   24.39300   17.15900
      C    C276    32.82200   25.63200   16.83600
      O    O277    31.63200   25.50100   16.51500
      C    C278    33.07400   23.72100   18.42600
      C    C279    33.71000   22.35700   18.64600
      C    C280    33.26000   24.60900   19.64500
      N    N281    33.40700   26.82900   16.91100
      C    C282    32.71700   28.07100   16.56700
      C    C283    33.09800   28.61300   15.19200
      O    O284    32.65300   29.70800   14.82400
      C    C285    32.98400   29.13700   17.64000
      C    C286    32.42600   28.74800   19.00300
      C    C287    32.65100   29.79200   20.08500
      O    O288    33.03700   30.93700   19.76900
      O    O289    32.44700   29.45100   21.27000
      N    N290    33.88000   27.87000   14.41100
      C    C291    34.36500   28.36500   13.12900
      C    C292    33.39100   28.14300   11.98200
      O    O293    33.62300   28.67300   10.89000
      C    C294    35.70800   27.70800   12.79600
      C    C295    36.88800   28.20800   13.63700
      C    C296    38.12200   27.35700   13.38400
      C    C297    37.16500   29.66800   13.31500
      N    N298    32.31400   27.39700   12.19900
      C    C299    31.41300   27.04000   11.12100
      C    C300    31.69900   25.69800   10.48600
      O    O301    31.12100   25.39200    9.43200
      N    N302    32.57800   24.90200   11.09000
      C    C303    32.83600   23.53100   10.68100
      C    C304    31.69900   22.62800   11.13600
      O    O305    31.10200   22.83500   12.19700
      C    C306    34.15400   23.03300   11.28200
      C    C307    35.40200   23.84200   10.93000
      C    C308    36.56900   23.49200   11.86000
      C    C309    35.74800   23.58200    9.47300
      N    N310    31.40400   21.62400   10.31700
      C    C311    30.44100   20.57700   10.63200
      C    C312    31.16100   19.35200   11.17300
      O    O313    32.38500   19.23500   11.10900
      C    C314    29.65600   20.17500    9.38600
      O    O315    30.52400   19.52900    8.46600
      N    N316    30.37800   18.40900   11.69100
      C    C317    30.97700   17.15400   12.13200
      C    C318    31.58600   16.39600   10.95800
      O    O319    32.64900   15.77500   11.09900
      C    C320    29.94000   16.30400   12.87000
      O    O321    29.66000   16.87500   14.14500
      N    N322    30.95400   16.46100    9.77900
      C    C323    31.57400   15.88200    8.59200
      C    C324    32.91900   16.54000    8.29900
      O    O325    33.87600   15.86300    7.89800
      C    C326    30.65100   16.01400    7.37700
      C    C327    29.44600   15.10300    7.41100
      C    C328    28.53900   15.36700    6.21500
      N    N329    29.17100   15.04600    4.93900
      C    C330    29.14900   13.84200    4.37500
      N    N331    28.53700   12.83200    4.98000
      N    N332    29.74400   13.64400    3.20500
      N    N333    33.00300   17.86700    8.46600
      C    C334    34.28100   18.55300    8.27700
      C    C335    35.33300   18.01900    9.23700
      O    O336    36.50100   17.85500    8.86500
      C    C337    34.13300   20.06400    8.49400
      C    C338    33.34700   20.75800    7.40100
      O    O339    33.31500   20.27700    6.25100
      O    O340    32.76000   21.81900    7.69500
      N    N341    34.94800   17.78500   10.49200
      C    C342    35.89700   17.28400   11.48100
      C    C343    36.48400   15.94800   11.04400
      O    O344    37.69400   15.71300   11.17600
      C    C345    35.20800   17.14600   12.83600
      N    N346    35.63800   15.04900   10.54300
      C    C347    36.12000   13.75100   10.07400
      C    C348    37.10400   13.93300    8.92700
      O    O349    38.16600   13.30300    8.89500
      C    C350    34.94400   12.86200    9.64800
      C    C351    35.45500   11.56800    9.06200
      C    C352    34.03400   12.58500   10.83200
      N    N353    36.75400   14.79200    7.96300
      C    C354    37.61200   14.99900    6.80300
      C    C355    38.90900   15.67900    7.20200
      O    O356    39.98300   15.32800    6.69300
      C    C357    36.87900   15.82600    5.74600
      N    N358    38.83200   16.65600    8.10100
      C    C359    40.04900   17.33900    8.51400
      C    C360    40.95500   16.40000    9.28700
      O    O361    42.17400   16.41900    9.10100
      C    C362    39.73600   18.57000    9.35700
      C    C363    41.01100   19.28500    9.78500
      S    S364    40.75000   20.53600   11.05300
      C    C365    40.10600   21.85000   10.04900
      N    N366    40.37200   15.56500   10.15000
      C    C367    41.17800   14.58800   10.87500
      C    C368    41.93800   13.68000    9.91400
      O    O369    43.11900   13.38100   10.13600
      C    C370    40.28200   13.77100   11.81000
      N    N371    41.27500   13.21500    8.85100
      C    C372    41.95500   12.38500    7.86200
      C    C373    43.06200   13.16200    7.17200
      O    O374    44.14900   12.62700    6.92900
      C    C375    40.96000   11.86500    6.82300
      N    N376    42.79900   14.42500    6.82900
      C    C377    43.81800   15.21700    6.14300
      C    C378    45.01500   15.47700    7.05300
      O    O379    46.16700   15.44400    6.59500
      C    C380    43.21600   16.53200    5.64400
      C    C381    42.29200   16.34700    4.44900
      O    O382    42.34800   15.28900    3.76700
      O    O383    41.48800   17.27600    4.19700
      N    N384    44.76900   15.70000    8.35200
      C    C385    45.87400   15.88700    9.29900
      C    C386    46.71300   14.62000    9.39600
      O    O387    47.94700   14.67800    9.46400
      C    C388    45.34500   16.31400   10.68300
      C    C389    44.80300   17.74200   10.62200
      C    C390    46.45900   16.21700   11.75400
      C    C391    44.03300   18.14800   11.86500
      N    N392    46.06500   13.45300    9.41900
      N    N393    46.06100   13.45500    9.38200
      C    C394    46.83600   12.21500    9.45200
      C    C395    46.80000   12.19700    9.45200
      C    C396    47.70900   12.09500    8.21000
      C    C397    47.65100   11.99000    8.20200
      O    O398    48.88800   11.73000    8.29800
      O    O399    48.75900   11.44300    8.27500
      C    C400    45.90400   11.01000    9.58400
      C    C401    45.82200   11.04100    9.65400
      C    C402    46.61800    9.69300    9.88700
      C    C403    46.45000    9.70300   10.02500
      C    C404    47.02900    8.93600    8.63800
      C    C405    45.39600    8.62300   10.22200
      O    O406    46.58200    9.31000    7.53100
      O    O407    44.78000    8.57100   11.31000
      O    O408    47.80200    7.96300    8.76400
      O    O409    45.16500    7.84600    9.27700
      N    N410    47.15400   12.42800    7.04200
      C    C411    47.92800   12.32200    5.81200
      C    C412    49.09800   13.29800    5.79600
      O    O413    50.15200   12.99500    5.22600
      C    C414    47.01700   12.57700    4.60400
      C    C415    46.11500   11.39400    4.27500
      O    O416    46.29500   10.29100    4.84200
      O    O417    45.21500   11.56300    3.41600
      N    N418    48.92500   14.47200    6.39800
      C    C419    49.97400   15.48500    6.41000
      C    C420    51.07900   15.16200    7.41500
      O    O421    52.26400   15.41300    7.14400
      C    C422    49.35400   16.84000    6.74200
      C    C423    50.34500   17.97600    6.97000
      C    C424    50.98200   18.40200    5.64300
      C    C425    49.63700   19.15400    7.66100
      N    N426    50.70300   14.63500    8.58600
      C    C427    51.60200   14.54400    9.73200
      C    C428    51.84200   13.13200   10.22900
      O    O429    52.78300   12.93000   11.00900
      C    C430    51.05900   15.35700   10.92300
      O    O431    49.87300   14.71800   11.41600
      C    C432    50.74500   16.78800   10.53200
      N    N433    51.01800   12.16300    9.83600
      C    C434    51.08300   10.82100   10.37600
      C    C435    50.46600   10.67500   11.75100
      O    O436    50.51900    9.57700   12.32300
      N    N437    49.87900   11.74100   12.29200
      C    C438    49.25200   11.74000   13.61200
      C    C439    47.76100   11.48000   13.46400
      O    O440    47.07600   12.17800   12.70900
      C    C441    49.47700   13.08200   14.32900
      C    C442    48.70400   13.11300   15.66000
      C    C443    50.96200   13.33400   14.54200
      N    N444    47.25400   10.49600   14.20700
      C    C445    45.81900   10.29600   14.38500
      C    C446    45.40300   11.09600   15.61700
      O    O447    45.73200   10.71900   16.74900
      C    C448    45.50800    8.81300   14.55500
      O    O449    45.96000    8.08100   13.40100
      C    C450    44.01500    8.59900   14.76900
      N    N451    44.66100   12.18000   15.40200
      N    N452    44.72800   12.22400   15.39500
      C    C453    44.32600   13.11400   16.47000
      C    C454    44.35400   13.09100   16.50200
      C    C455    43.23700   12.52700   17.36600
      C    C456    43.29800   12.41400   17.36000
      O    O457    42.16200   12.16900   16.87500
      O    O458    42.31800   11.87500   16.84000
      C    C459    43.87200   14.43000   15.84700
      C    C460    43.82700   14.42500   15.97900
      C    C461    43.59500   15.62300   16.75200
      C    C462    44.87700   15.49100   15.67700
      C    C463    44.83700   15.98700   17.55000
      C    C464    44.22600   16.74600   15.12800
      C    C465    43.13000   16.80000   15.91300
      C    C466    45.67300   15.82100   16.91600
      N    N467    43.50600   12.42900   18.67400
      C    C468    42.50400   11.93500   19.61600
      C    C469    41.52400   13.04200   19.98800
      O    O470    41.84900   14.23000   19.93100
      C    C471    43.16100   11.38200   20.88900
      O    O472    43.80300   12.41400   21.63400
      N    N473    40.29800   12.63700   20.34400
      C    C474    39.33300   13.59100   20.88100
      C    C475    39.95600   14.35000   22.03100
      O    O476    39.80600   15.57300   22.15300
      C    C477    38.05000   12.86800   21.32500
      C    C478    37.16000   13.82000   22.14300
      C    C479    37.30400   12.33400   20.11400
      N    N480    40.65000   13.62800   22.90400
      C    C481    41.22600   14.25400   24.08800
      C    C482    42.18400   15.36800   23.70400
      O    O483    42.08700   16.49600   24.20900
      C    C484    41.94100   13.19600   24.92400
      N    N485    43.13800   15.07000   22.82400
      C    C486    44.09800   16.10100   22.43800
      C    C487    43.39800   17.26900   21.75500
      O    O488    43.70800   18.44000   22.02200
      C    C489    45.19300   15.50100   21.54400
      C    C490    46.04800   16.62400   20.94500
      C    C491    46.03800   14.55100   22.33900
      N    N492    42.47200   16.98500   20.83400
      C    C493    41.88000   18.07300   20.06200
      C    C494    41.08000   19.00600   20.96100
      O    O495    41.20100   20.23400   20.87000
      C    C496    40.99600   17.50900   18.94900
      N    N497    40.26800   18.44400   21.85100
      C    C498    39.40800   19.32400   22.62900
      C    C499    40.11100   19.91800   23.82900
      O    O500    39.59800   20.89400   24.40100
      C    C501    38.11200   18.58500   22.99400
      C    C502    37.19600   18.50700   21.82400
      C    C503    36.24700   19.49300   21.62100
      C    C504    37.38700   17.54100   20.83600
      C    C505    35.44500   19.48000   20.49900
      C    C506    36.58600   17.52400   19.70300
      C    C507    35.61300   18.49700   19.53800
      N    N508    41.29300   19.41100   24.16700
      C    C509    42.16200   20.07300   25.13000
      C    C510    42.97900   21.17800   24.48900
      O    O511    43.55900   21.99100   25.21200
      C    C512    43.10900   19.07600   25.79400
      N    N513    43.03700   21.22100   23.15900
      C    C514    43.73400   22.27000   22.41600
      C    C515    42.76300   22.76600   21.36600
      O    O516    42.94700   22.54100   20.16400
      C    C517    45.03200   21.72800   21.81500
      C    C518    45.92200   21.11400   22.84700
      N    N519    45.71900   19.84200   23.34600
      C    C520    46.97300   21.62200   23.52800
      C    C521    46.63300   19.58500   24.26600
      N    N522    47.39700   20.65300   24.40200
      N    N523    41.69200   23.42900   21.79800
      C    C524    40.51100   23.60300   20.94000
      C    C525    40.54200   24.81100   20.01500
      O    O526    39.48400   25.18100   19.49600
      C    C527    39.38500   23.75500   21.96900
      C    C528    40.06000   24.50600   23.12900
      C    C529    41.46800   23.91200   23.17900
      N    N530    41.69800   25.43500   19.81700
      C    C531    41.83900   26.57400   18.92300
      C    C532    42.86500   26.22300   17.85000
      O    O533    43.70800   25.34900   18.04400
      C    C534    42.26900   27.83200   19.68200
      O    O535    43.60800   27.67300   20.16500
      C    C536    41.32200   28.09900   20.86500
      N    N537    42.80700   26.89800   16.69800
      C    C538    43.77000   26.56600   15.64300
      C    C539    45.19800   26.70900   16.15800
      O    O540    46.04900   25.84200   15.92800
      C    C541    43.53700   27.42600   14.39000
      C    C542    42.31000   26.90100   13.64300
      C    C543    44.79100   27.39900   13.48300
      C    C544    41.85200   27.82300   12.51000
      N    N545    45.48900   27.80500   16.86000
      C    C546    46.88100   28.01700   17.24700
      C    C547    47.32900   26.99100   18.27900
      O    O548    48.44800   26.47600   18.18300
      C    C549    47.10400   29.44600   17.73900
      C    C550    46.30100   29.85400   18.95300
      C    C551    46.26600   31.37100   19.12000
      O    O552    47.02200   32.09500   18.42500
      O    O553    45.47400   31.84000   19.94800
      N    N554    46.47200   26.65400   19.26100
      C    C555    46.88700   25.67100   20.26400
      C    C556    46.94900   24.26400   19.66700
      O    O557    47.85000   23.48100   20.00700
      C    C558    45.97100   25.70600   21.49400
      O    O559    44.62400   25.36400   21.20200
      N    N560    46.00800   23.92400   18.78300
      C    C561    46.05100   22.61400   18.13800
      C    C562    47.31800   22.46900   17.30300
      O    O563    48.02000   21.45800   17.39500
      C    C564    44.80700   22.40800   17.27400
      C    C565    44.79700   21.08200   16.51000
      C    C566    44.78400   19.90600   17.49700
      C    C567    43.60000   21.01800   15.57000
      N    N568    47.63500   23.48500   16.49600
      C    C569    48.83700   23.42800   15.66600
      C    C570    50.07500   23.24200   16.52300
      O    O571    50.94700   22.41900   16.21700
      C    C572    48.95200   24.70400   14.82600
      N    N573    50.17300   24.01000   17.60700
      C    C574    51.31700   23.89500   18.50000
      C    C575    51.45500   22.48000   19.04700
      O    O576    52.56200   21.93600   19.09200
      C    C577    51.18000   24.91800   19.62600
      O    O578    51.16700   26.23300   19.05000
      C    C579    52.33300   24.79900   20.59500
      N    N580    50.33700   21.84500   19.40400
      C    C581    50.39200   20.51700   20.00600
      C    C582    50.68800   19.43000   18.97200
      O    O583    51.40100   18.46100   19.28300
      C    C584    49.07700   20.23800   20.74100
      C    C585    48.99700   18.85900   21.36800
      C    C586    50.07300   18.67700   22.43000
      N    N587    49.89500   17.42000   23.14900
      C    C588    50.18200   16.22800   22.63500
      N    N589    50.64900   16.13500   21.39400
      N    N590    49.99000   15.13000   23.35500
      N    N591    50.16400   19.57000   17.75200
      C    C592    50.43800   18.58000   16.70600
      C    C593    51.93000   18.51500   16.41300
      O    O594    52.50600   17.42900   16.23500
      C    C595    49.64300   18.91400   15.43300
      C    C596    48.15600   18.65700   15.63500
      C    C597    50.20900   18.12300   14.22300
      C    C598    47.30300   19.18300   14.49000
      N    N599    52.58100   19.67500   16.35000
      C    C600    53.99700   19.72600   15.99900
      C    C601    54.85200   19.40200   17.21100
      O    O602    55.81400   18.62300   17.13800
      C    C603    54.34800   21.11600   15.43700
      C    C604    53.48900   21.43200   14.20600
      C    C605    55.84600   21.21600   15.14300
      C    C606    53.68700   20.44000   13.04000
      N    N607    54.48800   19.99800   18.33600
      C    C608    55.26100   20.05100   19.55400
      C    C609    54.80700   18.95300   20.49600
      O    O610    54.29100   19.22600   21.58000
      C    C611    55.09700   21.44200   20.18900
      C    C612    55.48300   22.57700   19.22700
      C    C613    55.83000   23.87300   19.93100
      O    O614    55.55800   23.98000   21.14600
      O    O615    56.38100   24.78500   19.27200
      O    O616    54.93500   17.76900   20.17300
